Apilimod(10173277)
     RDKit          3D

 31 34  0  0  0  0  0  0  0  0999 V2000
   -0.4067   -5.6737   -0.3374 O   0  0  0  0  0  0  0  0  0  0  0  0
    3.1224    0.4853    0.9836 O   0  0  0  0  0  0  0  0  0  0  0  0
    0.0171   -2.9147   -0.0099 N   0  0  0  0  0  0  0  0  0  0  0  0
    1.6163   -1.2040    0.4955 N   0  0  0  0  0  0  0  0  0  0  0  0
    0.8985    1.0831    0.7442 N   0  0  0  0  0  0  0  0  0  0  0  0
   -1.4026    1.6373    0.4859 N   0  0  0  0  0  0  0  0  0  0  0  0
   -2.6662    1.2634    0.2386 N   0  0  0  0  0  0  0  0  0  0  0  0
    5.5556    2.3326    0.4994 N   0  0  0  0  0  0  0  0  0  0  0  0
    1.0407   -3.7527   -0.6494 C   0  0  0  0  0  0  0  0  0  0  0  0
   -0.9168   -3.6299    0.8667 C   0  0  0  0  0  0  0  0  0  0  0  0
    0.3819   -4.9668   -1.2945 C   0  0  0  0  0  0  0  0  0  0  0  0
   -1.4704   -4.8519    0.1420 C   0  0  0  0  0  0  0  0  0  0  0  0
    0.3253   -1.5744    0.2447 C   0  0  0  0  0  0  0  0  0  0  0  0
   -0.7081   -0.6357    0.2358 C   0  0  0  0  0  0  0  0  0  0  0  0
   -0.3627    0.6756    0.4921 C   0  0  0  0  0  0  0  0  0  0  0  0
    1.8248    0.1056    0.7306 C   0  0  0  0  0  0  0  0  0  0  0  0
    4.0997   -0.5452    0.9696 C   0  0  0  0  0  0  0  0  0  0  0  0
    5.4722    0.0417    1.2801 C   0  0  0  0  0  0  0  0  0  0  0  0
    5.9072    1.0586    0.2529 C   0  0  0  0  0  0  0  0  0  0  0  0
    6.6191    0.6276   -0.8448 C   0  0  0  0  0  0  0  0  0  0  0  0
   -4.9444    2.0512    0.0198 C   0  0  0  0  0  0  0  0  0  0  0  0
   -3.5050    2.2473    0.2661 C   0  0  0  0  0  0  0  0  0  0  0  0
   -6.7831    0.5934   -0.4813 C   0  0  0  0  0  0  0  0  0  0  0  0
   -5.4202    0.7781   -0.2489 C   0  0  0  0  0  0  0  0  0  0  0  0
   -5.7939    3.1447    0.0624 C   0  0  0  0  0  0  0  0  0  0  0  0
    7.0049    1.5891   -1.7721 C   0  0  0  0  0  0  0  0  0  0  0  0
   -7.6514    1.6843   -0.4420 C   0  0  0  0  0  0  0  0  0  0  0  0
   -7.1569    2.9599   -0.1701 C   0  0  0  0  0  0  0  0  0  0  0  0
    5.9479    3.2389   -0.4238 C   0  0  0  0  0  0  0  0  0  0  0  0
    6.6668    2.9220   -1.5650 C   0  0  0  0  0  0  0  0  0  0  0  0
   -7.3121   -0.7708   -0.7709 C   0  0  0  0  0  0  0  0  0  0  0  0
  1 11  1  0
  1 12  1  0
  2 16  1  0
  2 17  1  0
  3  9  1  0
  3 10  1  0
  3 13  1  0
  4 13  2  0
  4 16  1  0
  5 15  1  0
  5 16  2  0
  6  7  1  0
  6 15  1  0
  7 22  2  0
  8 19  2  0
  8 29  1  0
  9 11  1  0
 10 12  1  0
 13 14  1  0
 14 15  2  0
 17 18  1  0
 18 19  1  0
 19 20  1  0
 20 26  2  0
 21 22  1  0
 21 24  1  0
 21 25  2  0
 23 24  2  0
 23 27  1  0
 23 31  1  0
 25 28  1  0
 26 30  1  0
 27 28  2  0
 29 30  2  0
M  END
>  <PUBCHEM_COMPOUND_CID>  (1) 
10173277

>  <PUBCHEM_CONFORMER_RMSD>  (1) 
1

>  <PUBCHEM_CONFORMER_DIVERSEORDER>  (1) 
1
148
199
239
91
237
141
104
166
115
180
240
128
219
223
241
63
178
170
123
107
196
230
221
161
176
139
204
158
151
228
235
206
210
114
238
122
156
229
69
183
236
49
110
173
146
185
127
51
153
105
136
100
113
73
163
226
101
111
99
125
215
234
218
250
77
144
120
159
201
67
233
197
202
88
150
174
181
203
80
38
95
172
179
195
217
54
138
62
165
126
71
246
116
248
131
98
211
70
149
35
155
129
133
193
83
102
103
37
247
220
72
135
53
60
58
175
57
13
213
137
162
90
18
132
194
25
143
59
26
81
124
109
222
227
208
32
40
249
119
106
154
200
66
190
112
216
68
167
207
39
182
20
92
45
169
225
78
224
75
64
121
244
82
134
243
56
52
86
232
27
15
46
34
198
50
89
118
47
94
93
189
142
79
5
160
231
43
55
84
188
76
96
42
87
14
28
108
140
97
245
177
164
29
147
85
3
157
48
31
152
191
192
8
212
168
171
205
186
41
22
214
74
117
33
242
130
209
23
24
21
184
44
187
61
6
145
12
65
7
30
17
19
4
9
36
10
16
11
2

>  <PUBCHEM_MMFF94_PARTIAL_CHARGES>  (1) 
42
1 -0.56
10 0.37
11 0.28
12 0.28
13 0.41
14 -0.15
15 0.41
16 0.7
17 0.28
18 0.14
19 0.17
2 -0.36
20 -0.15
21 0.09
22 0.3
23 -0.14
24 -0.15
25 -0.15
26 -0.15
27 -0.15
28 -0.15
29 0.16
3 -0.84
30 -0.15
31 0.14
4 -0.62
40 0.15
45 0.4
46 0.15
47 0.06
48 0.15
49 0.15
5 -0.62
50 0.15
51 0.15
52 0.15
53 0.15
54 0.15
6 -0.46
7 -0.49
8 -0.62
9 0.37

>  <PUBCHEM_EFFECTIVE_ROTOR_COUNT>  (1) 
9.2

>  <PUBCHEM_PHARMACOPHORE_FEATURES>  (1) 
10
1 1 acceptor
1 6 donor
1 7 acceptor
1 8 acceptor
3 3 4 13 cation
3 4 5 16 cation
6 1 3 9 10 11 12 rings
6 21 23 24 25 27 28 rings
6 4 5 13 14 15 16 rings
6 8 19 20 26 29 30 rings

>  <PUBCHEM_HEAVY_ATOM_COUNT>  (1) 
31

>  <PUBCHEM_ATOM_DEF_STEREO_COUNT>  (1) 
0

>  <PUBCHEM_ATOM_UDEF_STEREO_COUNT>  (1) 
0

>  <PUBCHEM_BOND_DEF_STEREO_COUNT>  (1) 
1

>  <PUBCHEM_BOND_UDEF_STEREO_COUNT>  (1) 
0

>  <PUBCHEM_ISOTOPIC_ATOM_COUNT>  (1) 
0

>  <PUBCHEM_COMPONENT_COUNT>  (1) 
1

>  <PUBCHEM_CACTVS_TAUTO_COUNT>  (1) 
6

>  <PUBCHEM_CONFORMER_ID>  (1) 
009B3B5D00000001

>  <PUBCHEM_MMFF94_ENERGY>  (1) 
98.5205

>  <PUBCHEM_FEATURE_SELFOVERLAP>  (1) 
50.873

>  <PUBCHEM_SHAPE_FINGERPRINT>  (1) 
10906281 52 18335706005581829129
11062273 19 18052540976004334778
11135926 11 18267570335408437357
11136131 41 18263914450456792163
11719270 70 18268699537670416099
11991303 11 18335136544115400718
12539765 74 18342745074464445069
13540713 5 18115292515105975074
13911987 19 18341058457834499513
14068700 686 18263361391812591893
14190465 44 18267007522925975800
1454969 45 18407755937388161749
14790565 3 18411416189805173840
15021287 119 11170208566157558073
15131766 46 15720816808314598772
15400415 2 18268702828174702729
16993438 75 18262800787270134395
18365409 1 18339080518315668055
20505436 4 18040715879593437794
23729417 116 17404303396428656446
249057 3 18409450255469241418
3103668 31 18123469651232217287
4058900 60 18340495456230168137
4073 2 18337112251537881857
4461854 278 18339371880988095555
5265222 85 18340204197766531601
563151 40 18272928345438121991
6898599 12 18265058118705790524
9658208 31 18200861989666618088
9980921 221 18268423727835307703

>  <PUBCHEM_SHAPE_MULTIPOLES>  (1) 
596.34
21.69
6.58
1.14
7.53
11.93
-0.23
-29.3
-6.81
1.09
-1.76
-1.8
-0.01
-1.53

>  <PUBCHEM_SHAPE_SELFOVERLAP>  (1) 
1272.866

>  <PUBCHEM_SHAPE_VOLUME>  (1) 
326.7

>  <PUBCHEM_COORDINATE_TYPE>  (1) 
2
5
10

$$$$
CamostatMethylate
     RDKit          3D

 34 34  0  0  0  0  0  0  0  0999 V2000
    0.5671    0.5012   -0.0197 S   0  0  0  0  0  0  0  0  0  0  0  0
    1.6512   -0.9049   -0.8103 O   0  0  0  0  0  0  0  0  0  0  0  0
   -5.6150   -0.3472   -1.8939 O   0  0  0  0  0  0  0  0  0  0  0  0
   -4.6253   -2.0685   -0.7012 O   0  0  0  0  0  0  0  0  0  0  0  0
   -4.8492    1.3981   -0.0074 O   0  0  0  0  0  0  0  0  0  0  0  0
    2.3474    0.8583   -2.1353 O   0  0  0  0  0  0  0  0  0  0  0  0
    1.5933   -0.6310   -0.7206 O   0  0  0  0  0  0  0  0  0  0  0  0
    0.5581    1.7467   -0.8603 O   0  0  0  0  0  0  0  0  0  0  0  0
    1.0550    0.8384    1.3614 O   0  0  0  0  0  0  0  0  0  0  0  0
   -6.5009    0.8353    1.5531 N   0  0  0  0  0  0  0  0  0  0  0  0
    7.3475    0.6760    1.9623 N   0  0  0  0  0  0  0  0  0  0  0  0
    8.9231    0.7325    0.1604 N   0  0  0  0  0  0  0  0  0  0  0  0
    9.6067    1.0469    2.5080 N   0  0  0  0  0  0  0  0  0  0  0  0
   -2.2560   -1.4023   -2.3222 C   0  0  0  0  0  0  0  0  0  0  0  0
   -3.6579   -1.5956   -2.8339 C   0  0  0  0  0  0  0  0  0  0  0  0
   -1.7248   -0.1099   -2.1863 C   0  0  0  0  0  0  0  0  0  0  0  0
   -1.4885   -2.5061   -1.9188 C   0  0  0  0  0  0  0  0  0  0  0  0
    0.3503   -1.0373   -1.3185 C   0  0  0  0  0  0  0  0  0  0  0  0
   -0.4319    0.0733   -1.6870 C   0  0  0  0  0  0  0  0  0  0  0  0
   -0.1963   -2.3216   -1.4197 C   0  0  0  0  0  0  0  0  0  0  0  0
   -4.6524   -1.3546   -1.7417 C   0  0  0  0  0  0  0  0  0  0  0  0
   -6.5626   -0.0157   -0.8802 C   0  0  0  0  0  0  0  0  0  0  0  0
    3.7905    0.2789   -0.3387 C   0  0  0  0  0  0  0  0  0  0  0  0
   -5.9081    0.7553    0.2382 C   0  0  0  0  0  0  0  0  0  0  0  0
    2.5544    0.1172   -1.1354 C   0  0  0  0  0  0  0  0  0  0  0  0
    4.7549    1.2396   -0.6947 C   0  0  0  0  0  0  0  0  0  0  0  0
    4.0142   -0.5235    0.7942 C   0  0  0  0  0  0  0  0  0  0  0  0
    6.1685    0.5365    1.1546 C   0  0  0  0  0  0  0  0  0  0  0  0
    5.9287    1.3749    0.0524 C   0  0  0  0  0  0  0  0  0  0  0  0
    5.1880   -0.3852    1.5401 C   0  0  0  0  0  0  0  0  0  0  0  0
   -5.8536    1.6635    2.5770 C   0  0  0  0  0  0  0  0  0  0  0  0
   -7.7395    0.1153    1.8657 C   0  0  0  0  0  0  0  0  0  0  0  0
    8.5734    0.8355    1.5464 C   0  0  0  0  0  0  0  0  0  0  0  0
   -1.0820   -0.1597    0.0703 C   0  0  0  0  0  0  0  0  0  0  0  0
  1  7  1  0
  1  8  2  0
  1  9  2  0
  1 34  1  0
  2 18  1  0
  2 25  1  0
  3 21  1  0
  3 22  1  0
  4 21  2  0
  5 24  2  0
  6 25  2  0
 10 24  1  0
 10 31  1  0
 10 32  1  0
 11 28  1  0
 11 33  2  3
 12 33  1  0
 13 33  1  0
 14 15  1  0
 14 16  2  0
 14 17  1  0
 15 21  1  0
 16 19  1  0
 17 20  2  0
 18 19  2  0
 18 20  1  0
 22 24  1  0
 23 25  1  0
 23 26  2  0
 23 27  1  0
 26 29  1  0
 27 30  2  0
 28 29  2  0
 28 30  1  0
M  END
>  <PUBCHEM_COMPOUND_CID>  (2) 
5284360

>  <PUBCHEM_COMPOUND_CANONICALIZED>  (2) 
1

>  <PUBCHEM_CACTVS_COMPLEXITY>  (2) 
695

>  <PUBCHEM_CACTVS_HBOND_ACCEPTOR>  (2) 
9

>  <PUBCHEM_CACTVS_HBOND_DONOR>  (2) 
3

>  <PUBCHEM_CACTVS_ROTATABLE_BOND>  (2) 
9

>  <PUBCHEM_CACTVS_SUBSKEYS>  (2) 
AAADceB7vABAAAAAAAAAAAAAAAAAAAAAAAAwYAAAAAAAAAABQAAAHgQQCAAADAyhmAazzoNABIKoAiXSfHKCCAEkIgAIiAFObMgOJjKEtZ+DOyDkwhEY6YeY2aGeKAAAAAAAAABQAAAAAAAAAAAAAAAAAA==

>  <PUBCHEM_IUPAC_OPENEYE_NAME>  (2) 
[4-[2-[2-(dimethylamino)-2-oxo-ethoxy]-2-oxo-ethyl]phenyl] 4-guanidinobenzoate;methanesulfonic acid

>  <PUBCHEM_IUPAC_CAS_NAME>  (2) 
4-(diaminomethylideneamino)benzoic acid [4-[2-[2-(dimethylamino)-2-oxoethoxy]-2-oxoethyl]phenyl] ester;methanesulfonic acid

>  <PUBCHEM_IUPAC_NAME_MARKUP>  (2) 
[4-[2-[2-(dimethylamino)-2-oxoethoxy]-2-oxoethyl]phenyl] 4-(diaminomethylideneamino)benzoate;methanesulfonic acid

>  <PUBCHEM_IUPAC_NAME>  (2) 
[4-[2-[2-(dimethylamino)-2-oxoethoxy]-2-oxoethyl]phenyl] 4-(diaminomethylideneamino)benzoate;methanesulfonic acid

>  <PUBCHEM_IUPAC_SYSTEMATIC_NAME>  (2) 
[4-[2-[2-(dimethylamino)-2-oxidanylidene-ethoxy]-2-oxidanylidene-ethyl]phenyl] 4-[bis(azanyl)methylideneamino]benzoate;methanesulfonic acid

>  <PUBCHEM_IUPAC_TRADITIONAL_NAME>  (2) 
4-guanidinobenzoic acid [4-[2-[2-(dimethylamino)-2-keto-ethoxy]-2-keto-ethyl]phenyl] ester;mesylic acid

>  <PUBCHEM_IUPAC_INCHI>  (2) 
InChI=1S/C20H22N4O5.CH4O3S/c1-24(2)17(25)12-28-18(26)11-13-3-9-16(10-4-13)29-19(27)14-5-7-15(8-6-14)23-20(21)22;1-5(2,3)4/h3-10H,11-12H2,1-2H3,(H4,21,22,23);1H3,(H,2,3,4)

>  <PUBCHEM_IUPAC_INCHIKEY>  (2) 
FSEKIHNIDBATFG-UHFFFAOYSA-N

>  <PUBCHEM_EXACT_MASS>  (2) 
494.14713497

>  <PUBCHEM_MOLECULAR_FORMULA>  (2) 
C21H26N4O8S

>  <PUBCHEM_MOLECULAR_WEIGHT>  (2) 
494.5

>  <PUBCHEM_SMILES>  (2) 
CN(C)C(=O)COC(=O)CC1=CC=C(C=C1)OC(=O)C2=CC=C(C=C2)N=C(N)N.CS(=O)(=O)O

>  <PUBCHEM_CONNECTIVITY_SMILES>  (2) 
CN(C)C(=O)COC(=O)CC1=CC=C(C=C1)OC(=O)C2=CC=C(C=C2)N=C(N)N.CS(=O)(=O)O

>  <PUBCHEM_CACTVS_TPSA>  (2) 
200

>  <PUBCHEM_MONOISOTOPIC_WEIGHT>  (2) 
494.14713497

>  <PUBCHEM_TOTAL_CHARGE>  (2) 
0

>  <PUBCHEM_HEAVY_ATOM_COUNT>  (2) 
34

>  <PUBCHEM_ATOM_DEF_STEREO_COUNT>  (2) 
0

>  <PUBCHEM_ATOM_UDEF_STEREO_COUNT>  (2) 
0

>  <PUBCHEM_BOND_DEF_STEREO_COUNT>  (2) 
0

>  <PUBCHEM_BOND_UDEF_STEREO_COUNT>  (2) 
0

>  <PUBCHEM_ISOTOPIC_ATOM_COUNT>  (2) 
0

>  <PUBCHEM_COMPONENT_COUNT>  (2) 
2

>  <PUBCHEM_CACTVS_TAUTO_COUNT>  (2) 
-1

>  <PUBCHEM_COORDINATE_TYPE>  (2) 
1
5
255

>  <PUBCHEM_BONDANNOTATIONS>  (2) 
14  16  8
14  17  8
16  19  8
17  20  8
18  19  8
18  20  8
23  26  8
23  27  8
26  29  8
27  30  8
28  29  8
28  30  8

$$$$
Cepharanthine(10206)
     RDKit          3D

 45 52  0  0  1  0  0  0  0  0999 V2000
   -1.1928   -0.3734   -0.5029 O   0  0  0  0  0  0  0  0  0  0  0  0
   -1.2637   -1.1688    2.3672 O   0  0  0  0  0  0  0  0  0  0  0  0
   -3.2523   -0.9625    3.7008 O   0  0  0  0  0  0  0  0  0  0  0  0
   -2.2229   -3.0769   -0.1456 O   0  0  0  0  0  0  0  0  0  0  0  0
    2.1859    3.2441    0.9017 O   0  0  0  0  0  0  0  0  0  0  0  0
    4.5047    4.1949   -0.2135 O   0  0  0  0  0  0  0  0  0  0  0  0
   -4.7390    1.1298   -2.2448 N   0  0  0  0  0  0  0  0  0  0  0  0
    4.0765   -3.3539   -1.0531 N   0  0  0  0  0  0  0  0  0  0  0  0
   -3.4252    1.0702   -1.5560 C   0  0  2  0  0  0  0  0  0  0  0  0
   -3.4353    0.3689   -0.1956 C   0  0  0  0  0  0  0  0  0  0  0  0
    3.3696   -2.1036   -0.6922 C   0  0  1  0  0  0  0  0  0  0  0  0
   -4.6087    0.4409    0.5959 C   0  0  0  0  0  0  0  0  0  0  0  0
   -5.8767    0.5759   -1.5073 C   0  0  0  0  0  0  0  0  0  0  0  0
   -5.8547    0.9938   -0.0361 C   0  0  0  0  0  0  0  0  0  0  0  0
    1.8666   -2.3598   -0.5674 C   0  0  0  0  0  0  0  0  0  0  0  0
   -2.9741    2.5550   -1.4129 C   0  0  0  0  0  0  0  0  0  0  0  0
    3.7882   -4.4336   -0.1097 C   0  0  0  0  0  0  0  0  0  0  0  0
    1.3781   -3.6525   -0.3045 C   0  0  0  0  0  0  0  0  0  0  0  0
    2.3148   -4.8310   -0.2302 C   0  0  0  0  0  0  0  0  0  0  0  0
   -2.2873   -0.2678    0.3207 C   0  0  0  0  0  0  0  0  0  0  0  0
    3.8941   -1.3995    0.5992 C   0  0  0  0  0  0  0  0  0  0  0  0
   -4.6080    0.0002    1.9237 C   0  0  0  0  0  0  0  0  0  0  0  0
   -2.3042   -0.6563    1.6513 C   0  0  0  0  0  0  0  0  0  0  0  0
    0.9567   -1.2989   -0.6667 C   0  0  0  0  0  0  0  0  0  0  0  0
   -4.6774    0.5901   -3.6009 C   0  0  0  0  0  0  0  0  0  0  0  0
   -0.4086   -1.5021   -0.4559 C   0  0  0  0  0  0  0  0  0  0  0  0
   -3.4355   -0.5238    2.4250 C   0  0  0  0  0  0  0  0  0  0  0  0
   -1.5955    2.7665   -0.8301 C   0  0  0  0  0  0  0  0  0  0  0  0
   -0.0036   -3.8621   -0.1799 C   0  0  0  0  0  0  0  0  0  0  0  0
    5.5062   -3.1856   -1.2812 C   0  0  0  0  0  0  0  0  0  0  0  0
    4.0548    0.0963    0.4229 C   0  0  0  0  0  0  0  0  0  0  0  0
   -0.8965   -2.7932   -0.2601 C   0  0  0  0  0  0  0  0  0  0  0  0
   -0.4522    2.6003   -1.6218 C   0  0  0  0  0  0  0  0  0  0  0  0
   -1.4415    3.1127    0.5207 C   0  0  0  0  0  0  0  0  0  0  0  0
   -1.8727   -1.3708    3.6558 C   0  0  0  0  0  0  0  0  0  0  0  0
    3.0493    0.9848    0.8242 C   0  0  0  0  0  0  0  0  0  0  0  0
    5.2099    0.6097   -0.1866 C   0  0  0  0  0  0  0  0  0  0  0  0
    3.1793    2.3531    0.5631 C   0  0  0  0  0  0  0  0  0  0  0  0
    0.8220    2.7564   -1.0699 C   0  0  0  0  0  0  0  0  0  0  0  0
   -0.1699    3.2634    1.0767 C   0  0  0  0  0  0  0  0  0  0  0  0
    0.9628    3.0635    0.2876 C   0  0  0  0  0  0  0  0  0  0  0  0
    5.3575    1.9832   -0.3918 C   0  0  0  0  0  0  0  0  0  0  0  0
    4.3425    2.8592   -0.0154 C   0  0  0  0  0  0  0  0  0  0  0  0
   -2.9294   -3.3750   -1.3480 C   0  0  0  0  0  0  0  0  0  0  0  0
    5.1082    4.9381    0.8436 C   0  0  0  0  0  0  0  0  0  0  0  0
  1 20  1  0
  1 26  1  0
  2 23  1  0
  2 35  1  0
  3 27  1  0
  3 35  1  0
  4 32  1  0
  4 44  1  0
  5 38  1  0
  5 41  1  0
  6 43  1  0
  6 45  1  0
  9  7  1  1
  7 13  1  0
  7 25  1  0
 11  8  1  1
  8 17  1  0
  8 30  1  0
  9 10  1  0
  9 16  1  0
 10 12  2  0
 10 20  1  0
 11 15  1  0
 11 21  1  0
 12 14  1  0
 12 22  1  0
 13 14  1  0
 15 18  2  0
 15 24  1  0
 16 28  1  0
 17 19  1  0
 18 19  1  0
 18 29  1  0
 20 23  2  0
 21 31  1  0
 22 27  2  0
 23 27  1  0
 24 26  2  0
 26 32  1  0
 28 33  2  0
 28 34  1  0
 29 32  2  0
 31 36  2  0
 31 37  1  0
 33 39  1  0
 34 40  2  0
 36 38  1  0
 37 42  2  0
 38 43  2  0
 39 41  2  0
 40 41  1  0
 42 43  1  0
M  END
>  <PUBCHEM_COMPOUND_CID>  (3) 
10206

>  <PUBCHEM_CONFORMER_RMSD>  (3) 
1

>  <PUBCHEM_CONFORMER_DIVERSEORDER>  (3) 
1
4
5
6
2
3

>  <PUBCHEM_MMFF94_PARTIAL_CHARGES>  (3) 
55
1 -0.17
10 -0.14
11 0.41
12 -0.14
13 0.27
14 0.14
15 -0.14
16 0.14
17 0.27
18 -0.14
19 0.14
2 -0.36
20 0.08
21 0.14
22 -0.15
23 0.08
24 -0.15
25 0.27
26 0.08
27 0.08
28 -0.14
29 -0.15
3 -0.36
30 0.27
31 -0.14
32 0.08
33 -0.15
34 -0.15
35 0.56
36 -0.15
37 -0.15
38 0.08
39 -0.15
4 -0.36
40 -0.15
41 0.08
42 -0.15
43 0.08
44 0.28
45 0.28
5 -0.17
6 -0.36
60 0.15
61 0.15
65 0.15
69 0.15
7 -0.81
70 0.15
73 0.15
74 0.15
75 0.15
76 0.15
77 0.15
8 -0.81
9 0.41

>  <PUBCHEM_EFFECTIVE_ROTOR_COUNT>  (3) 
4.6

>  <PUBCHEM_PHARMACOPHORE_FEATURES>  (3) 
15
1 1 acceptor
1 2 acceptor
1 3 acceptor
1 4 acceptor
1 5 acceptor
1 6 acceptor
1 7 cation
1 8 cation
5 2 3 23 27 35 rings
6 10 12 20 22 23 27 rings
6 15 18 24 26 29 32 rings
6 28 33 34 39 40 41 rings
6 31 36 37 38 42 43 rings
6 7 9 10 12 13 14 rings
6 8 11 15 17 18 19 rings

>  <PUBCHEM_HEAVY_ATOM_COUNT>  (3) 
45

>  <PUBCHEM_ATOM_DEF_STEREO_COUNT>  (3) 
2

>  <PUBCHEM_ATOM_UDEF_STEREO_COUNT>  (3) 
0

>  <PUBCHEM_BOND_DEF_STEREO_COUNT>  (3) 
0

>  <PUBCHEM_BOND_UDEF_STEREO_COUNT>  (3) 
0

>  <PUBCHEM_ISOTOPIC_ATOM_COUNT>  (3) 
0

>  <PUBCHEM_COMPONENT_COUNT>  (3) 
1

>  <PUBCHEM_CACTVS_TAUTO_COUNT>  (3) 
1

>  <PUBCHEM_CONFORMER_ID>  (3) 
000027DE00000001

>  <PUBCHEM_MMFF94_ENERGY>  (3) 
181.6476

>  <PUBCHEM_FEATURE_SELFOVERLAP>  (3) 
76.337

>  <PUBCHEM_SHAPE_FINGERPRINT>  (3) 
10190206 1 16099681271863682740
10290309 65 18337396066744670156
107951 10 17458890622584625369
11135926 11 18339929320134400936
12156800 1 16476500218728434781
13560911 43 18265893562532759290
1361 2 18339631343581466021
14004853 49 17755877659669790044
14725015 67 18043518422203743312
150020 26 18189917463402656872
15082195 135 18199448012949436342
15320467 1 18412261706010498228
15439362 3 18411127027328159565
19315092 285 17058618872900171145
20721686 56 18338519638800116290
20764821 26 18339070596893461820
21133410 38 18129105687685289471
3027735 51 17909542106279638607
3380486 145 18337685195162866923
354706 35 17978762899993138364
4015057 19 18047190743833414851
4403749 210 17761477493986377712
469060 322 18120383317723982611
5265222 85 18119538879962138676
6086070 43 18337946788816066574

>  <PUBCHEM_SHAPE_MULTIPOLES>  (3) 
880.9
12
6.72
2.44
1.03
0.75
-1.26
-3.23
2.62
10.19
0.78
-4.55
0.39
2.72

>  <PUBCHEM_SHAPE_SELFOVERLAP>  (3) 
1965.245

>  <PUBCHEM_SHAPE_VOLUME>  (3) 
467.2

>  <PUBCHEM_COORDINATE_TYPE>  (3) 
2
5
10

$$$$
Chloroquine(2719)
     RDKit          3D

 22 23  0  0  1  0  0  0  0  0999 V2000
    5.6865    1.6202    1.4891 Cl  0  0  0  0  0  0  0  0  0  0  0  0
   -3.4381    1.1166    0.2312 N   0  0  0  0  0  0  0  0  0  0  0  0
    0.0243   -1.8990    0.2448 N   0  0  0  0  0  0  0  0  0  0  0  0
    2.3431    0.6111   -2.1920 N   0  0  0  0  0  0  0  0  0  0  0  0
   -2.3561   -1.5882   -0.2345 C   0  0  0  0  0  0  0  0  0  0  0  0
   -2.6376   -1.0080    1.1570 C   0  0  0  0  0  0  0  0  0  0  0  0
   -1.1696   -2.5616   -0.2376 C   0  0  2  0  0  0  0  0  0  0  0  0
   -3.7816    0.0041    1.1095 C   0  0  0  0  0  0  0  0  0  0  0  0
   -1.4510   -3.7668    0.6538 C   0  0  0  0  0  0  0  0  0  0  0  0
   -2.2352    1.7991    0.7109 C   0  0  0  0  0  0  0  0  0  0  0  0
   -4.5529    2.0603    0.1347 C   0  0  0  0  0  0  0  0  0  0  0  0
    0.8066   -1.0680   -0.5369 C   0  0  0  0  0  0  0  0  0  0  0  0
    1.9736   -0.4264   -0.0486 C   0  0  0  0  0  0  0  0  0  0  0  0
   -1.8274    2.9196   -0.2307 C   0  0  0  0  0  0  0  0  0  0  0  0
   -5.8132    1.3723   -0.3618 C   0  0  0  0  0  0  0  0  0  0  0  0
    0.4406   -0.8402   -1.8716 C   0  0  0  0  0  0  0  0  0  0  0  0
    2.7133    0.4068   -0.9136 C   0  0  0  0  0  0  0  0  0  0  0  0
    2.3891   -0.6173    1.2801 C   0  0  0  0  0  0  0  0  0  0  0  0
    1.2278   -0.0082   -2.6416 C   0  0  0  0  0  0  0  0  0  0  0  0
    3.8547    1.0249   -0.4102 C   0  0  0  0  0  0  0  0  0  0  0  0
    3.5346    0.0133    1.7573 C   0  0  0  0  0  0  0  0  0  0  0  0
    4.2681    0.8352    0.9107 C   0  0  0  0  0  0  0  0  0  0  0  0
  1 22  1  0
  2  8  1  0
  2 10  1  0
  2 11  1  0
  3  7  1  0
  3 12  1  0
  4 17  2  0
  4 19  1  0
  5  6  1  0
  5  7  1  0
  6  8  1  0
  7  9  1  1
 10 14  1  0
 11 15  1  0
 12 13  2  0
 12 16  1  0
 13 17  1  0
 13 18  1  0
 16 19  2  0
 17 20  1  0
 18 21  2  0
 20 22  2  0
 21 22  1  0
M  END
>  <PUBCHEM_COMPOUND_CID>  (4) 
2719

>  <PUBCHEM_CONFORMER_RMSD>  (4) 
0.8

>  <PUBCHEM_CONFORMER_DIVERSEORDER>  (4) 
2
120
121
189
185
119
279
323
41
293
125
89
308
319
292
260
159
136
104
24
33
263
287
58
139
207
283
231
85
142
138
197
324
148
137
66
291
238
211
17
101
193
169
91
165
64
164
257
56
268
270
32
6
67
224
49
190
191
255
178
133
202
97
10
205
35
29
52
251
176
130
15
183
147
212
18
40
60
182
254
84
47
37
78
160
113
141
75
140
4
156
110
135
196
108
83
188
19
13
155
296
318
235
96
88
241
266
290
1
62
61
55
310
262
282
8
74
201
77
162
168
179
295
90
322
150
210
23
246
229
184
256
217
9
274
152
27
303
271
82
236
247
240
225
34
20
284
175
127
281
320
158
14
123
93
316
272
239
126
131
118
69
81
307
109
220
163
321
44
216
223
194
213
26
203
98
234
132
145
228
171
105
73
289
232
301
3
161
300
57
253
209
124
252
258
11
134
31
195
312
153
244
298
43
38
100
242
177
313
286
39
87
94
54
122
86
180
71
103
200
299
114
305
297
70
53
215
50
277
186
259
48
111
302
128
173
280
28
306
314
264
157
230
92
181
199
95
218
12
167
227
72
63
79
143
7
76
198
304
170
214
149
237
245
68
102
276
5
204
59
144
187
317
309
315
269
51
267
222
112
233
219
65
249
146
46
16
106
261
115
250
22
248
151
172
273
174
80
99
208
243
206
21
45
192
25
221
275
30
166
117
226
107
294
285
116
42
278
129
154
36
265
288
311

>  <PUBCHEM_MMFF94_PARTIAL_CHARGES>  (4) 
22
1 -0.18
10 0.27
11 0.27
12 0.1
16 -0.15
17 0.31
18 -0.15
19 0.16
2 -0.81
20 -0.15
21 -0.15
22 0.18
3 -0.87
30 0.4
4 -0.62
44 0.15
45 0.15
46 0.15
47 0.15
48 0.15
7 0.37
8 0.27

>  <PUBCHEM_EFFECTIVE_ROTOR_COUNT>  (4) 
8

>  <PUBCHEM_PHARMACOPHORE_FEATURES>  (4) 
6
1 2 cation
1 3 cation
1 3 donor
1 4 acceptor
6 13 17 18 20 21 22 rings
6 4 12 13 16 17 19 rings

>  <PUBCHEM_HEAVY_ATOM_COUNT>  (4) 
22

>  <PUBCHEM_ATOM_DEF_STEREO_COUNT>  (4) 
0

>  <PUBCHEM_ATOM_UDEF_STEREO_COUNT>  (4) 
1

>  <PUBCHEM_BOND_DEF_STEREO_COUNT>  (4) 
0

>  <PUBCHEM_BOND_UDEF_STEREO_COUNT>  (4) 
0

>  <PUBCHEM_ISOTOPIC_ATOM_COUNT>  (4) 
0

>  <PUBCHEM_COMPONENT_COUNT>  (4) 
1

>  <PUBCHEM_CACTVS_TAUTO_COUNT>  (4) 
3

>  <PUBCHEM_CONFORMER_ID>  (4) 
00000A9F00000002

>  <PUBCHEM_MMFF94_ENERGY>  (4) 
60.0605

>  <PUBCHEM_FEATURE_SELFOVERLAP>  (4) 
30.477

>  <PUBCHEM_SHAPE_FINGERPRINT>  (4) 
10498660 4 18340218410008213429
11370993 70 18263078817170811233
11640471 11 17750532804274918423
11725454 13 17704064110238610494
11796584 16 10810990399222569928
12596602 18 17530970236629664784
12633257 1 18408597076262078232
12788726 201 17681010783204928331
12969540 114 15840993394580509200
13009979 54 17751644492573211762
13103583 49 16226049993751162353
13402501 40 18131346427472917201
13583140 156 17773875471173258554
13965767 371 17968653804986663325
14178342 30 18188776183587861242
14251764 30 10159398986437888341
14739800 52 17903923601962430116
14957384 54 18335702775307693960
15209294 21 18261385693955036714
15527383 91 15646774479027721868
20511986 3 17531237404986130333
20715895 44 17315630696063675125
20739085 24 16660649570465340326
21304303 282 18269255994034985767
21427221 339 17821452369618904238
22749437 52 18044103358627729861
23557571 272 18128837389208982311
23559900 14 18267322957391242847
238 59 15985102994413276482
2838139 119 17632003204701841408
341906 21 18410862078783651741
3797600 57 16738946974115389955
427121 178 18270685255369466397
484985 159 13841362032423437944
7064713 232 18261395499054598253
9981440 41 18261959553315463387

>  <PUBCHEM_SHAPE_MULTIPOLES>  (4) 
439.68
10.27
3.1
1.88
0.43
1.47
-1.01
-8.29
3.88
3.31
0.55
-1.82
0.04
0.77

>  <PUBCHEM_SHAPE_SELFOVERLAP>  (4) 
897.579

>  <PUBCHEM_SHAPE_VOLUME>  (4) 
255.7

>  <PUBCHEM_COORDINATE_TYPE>  (4) 
2
5
10

$$$$
Darunavir(213039)
     RDKit          3D

 38 41  0  0  1  0  0  0  0  0999 V2000
   -3.9813   -0.3289   -1.2954 S   0  0  0  0  0  0  0  0  0  0  0  0
    4.7693    3.4750    0.1519 O   0  0  0  0  0  0  0  0  0  0  0  0
    4.1443    3.0535    2.4125 O   0  0  0  0  0  0  0  0  0  0  0  0
    3.4041    0.8137    0.1221 O   0  0  0  0  0  0  0  0  0  0  0  0
   -0.0166    0.8949   -2.6762 O   0  0  0  0  0  0  0  0  0  0  0  0
    3.4200   -0.4208   -1.8145 O   0  0  0  0  0  0  0  0  0  0  0  0
   -3.4118   -1.6410   -1.5412 O   0  0  0  0  0  0  0  0  0  0  0  0
   -5.0781    0.1392   -2.1225 O   0  0  0  0  0  0  0  0  0  0  0  0
    1.5125   -0.2047   -0.5132 N   0  0  0  0  0  0  0  0  0  0  0  0
   -2.7203    0.8497   -1.2863 N   0  0  0  0  0  0  0  0  0  0  0  0
   -5.8781   -0.2538    4.3659 N   0  0  0  0  0  0  0  0  0  0  0  0
    5.4819    1.4681    1.2273 C   0  0  2  0  0  0  0  0  0  0  0  0
    5.1730    2.9433    1.4200 C   0  0  1  0  0  0  0  0  0  0  0  0
    4.7750    1.1306   -0.0755 C   0  0  2  0  0  0  0  0  0  0  0  0
    4.9735    0.8318    2.4958 C   0  0  0  0  0  0  0  0  0  0  0  0
    4.8802    2.4368   -0.8342 C   0  0  0  0  0  0  0  0  0  0  0  0
    3.8587    1.7546    2.9420 C   0  0  0  0  0  0  0  0  0  0  0  0
    0.6191   -1.0108   -1.3210 C   0  0  2  0  0  0  0  0  0  0  0  0
   -0.5456   -0.1549   -1.8661 C   0  0  1  0  0  0  0  0  0  0  0  0
    2.8329    0.0187   -0.8313 C   0  0  0  0  0  0  0  0  0  0  0  0
   -1.3997    0.4481   -0.7476 C   0  0  0  0  0  0  0  0  0  0  0  0
    0.1570   -2.2235   -0.4900 C   0  0  0  0  0  0  0  0  0  0  0  0
   -3.0791    2.2411   -0.9065 C   0  0  0  0  0  0  0  0  0  0  0  0
   -2.2161    3.2728   -1.6431 C   0  0  0  0  0  0  0  0  0  0  0  0
    1.2096   -3.2919   -0.3293 C   0  0  0  0  0  0  0  0  0  0  0  0
   -4.5428   -0.3057    0.3840 C   0  0  0  0  0  0  0  0  0  0  0  0
   -2.3663    3.1774   -3.1621 C   0  0  0  0  0  0  0  0  0  0  0  0
   -2.4910    4.6986   -1.1634 C   0  0  0  0  0  0  0  0  0  0  0  0
    1.3026   -4.3252   -1.2617 C   0  0  0  0  0  0  0  0  0  0  0  0
    2.0903   -3.2466    0.7515 C   0  0  0  0  0  0  0  0  0  0  0  0
   -5.5653    0.5629    0.7655 C   0  0  0  0  0  0  0  0  0  0  0  0
   -3.9633   -1.1570    1.3251 C   0  0  0  0  0  0  0  0  0  0  0  0
    2.2760   -5.3132   -1.1133 C   0  0  0  0  0  0  0  0  0  0  0  0
    3.0638   -4.2346    0.8998 C   0  0  0  0  0  0  0  0  0  0  0  0
    3.1566   -5.2679   -0.0327 C   0  0  0  0  0  0  0  0  0  0  0  0
   -6.0087    0.5802    2.0877 C   0  0  0  0  0  0  0  0  0  0  0  0
   -4.4068   -1.1397    2.6476 C   0  0  0  0  0  0  0  0  0  0  0  0
   -5.4295   -0.2711    3.0289 C   0  0  0  0  0  0  0  0  0  0  0  0
  1  7  2  0
  1  8  2  0
  1 10  1  0
  1 26  1  0
 13  2  1  6
  2 16  1  0
  3 13  1  0
  3 17  1  0
 14  4  1  1
  4 20  1  0
 19  5  1  1
  6 20  2  0
  9 18  1  0
  9 20  1  0
 10 21  1  0
 10 23  1  0
 11 38  1  0
 12 13  1  0
 12 14  1  0
 12 15  1  1
 14 16  1  0
 15 17  1  0
 18 19  1  0
 18 22  1  1
 19 21  1  0
 22 25  1  0
 23 24  1  0
 24 27  1  0
 24 28  1  0
 25 29  2  0
 25 30  1  0
 26 31  2  0
 26 32  1  0
 29 33  1  0
 30 34  2  0
 31 36  1  0
 32 37  2  0
 33 35  2  0
 34 35  1  0
 36 38  2  0
 37 38  1  0
M  END
>  <PUBCHEM_COMPOUND_CID>  (5) 
213039

>  <PUBCHEM_CONFORMER_RMSD>  (5) 
1.4

>  <PUBCHEM_CONFORMER_DIVERSEORDER>  (5) 
1
87
103
161
172
122
84
197
154
4
178
65
47
190
142
177
9
185
112
71
192
169
38
158
181
110
176
91
64
17
188
210
120
104
54
203
105
48
205
119
167
139
129
93
136
193
62
162
200
148
126
60
211
131
2
79
88
144
97
43
85
175
166
44
149
150
151
204
101
98
18
155
51
114
152
57
67
130
123
113
109
29
63
171
184
206
189
180
140
92
94
90
195
45
107
99
160
73
135
209
168
30
207
164
36
146
8
187
76
77
11
147
134
39
20
37
80
46
165
143
34
170
128
96
7
186
115
68
61
201
78
24
125
202
42
41
108
82
116
19
59
86
95
23
124
199
196
153
28
69
14
74
127
49
81
26
66
118
53
198
100
31
13
12
121
173
70
191
35
25
163
182
58
208
75
22
111
106
55
89
117
194
83
27
16
141
6
145
174
50
10
137
183
33
52
3
40
15
133
138
157
156
21
56
32
132
159
102
72
179
5

>  <PUBCHEM_MMFF94_PARTIAL_CHARGES>  (5) 
46
1 1.45
10 -0.85
11 -0.9
13 0.56
14 0.28
16 0.28
17 0.28
18 0.3
19 0.28
2 -0.56
20 0.78
21 0.36
22 0.14
23 0.36
25 -0.14
26 -0.01
29 -0.15
3 -0.56
30 -0.15
31 -0.15
32 -0.15
33 -0.15
34 -0.15
35 -0.15
36 -0.15
37 -0.15
38 0.1
4 -0.43
5 -0.68
52 0.37
58 0.4
6 -0.57
65 0.15
66 0.15
67 0.15
68 0.15
69 0.15
7 -0.65
70 0.15
71 0.15
72 0.15
73 0.15
74 0.4
75 0.4
8 -0.65
9 -0.73

>  <PUBCHEM_EFFECTIVE_ROTOR_COUNT>  (5) 
14.2

>  <PUBCHEM_PHARMACOPHORE_FEATURES>  (5) 
15
1 11 cation
1 11 donor
1 2 acceptor
1 3 acceptor
1 5 acceptor
1 5 donor
1 6 acceptor
1 7 acceptor
1 8 acceptor
1 9 donor
3 24 27 28 hydrophobe
5 2 12 13 14 16 rings
5 3 12 13 15 17 rings
6 25 29 30 33 34 35 rings
6 26 31 32 36 37 38 rings

>  <PUBCHEM_HEAVY_ATOM_COUNT>  (5) 
38

>  <PUBCHEM_ATOM_DEF_STEREO_COUNT>  (5) 
5

>  <PUBCHEM_ATOM_UDEF_STEREO_COUNT>  (5) 
0

>  <PUBCHEM_BOND_DEF_STEREO_COUNT>  (5) 
0

>  <PUBCHEM_BOND_UDEF_STEREO_COUNT>  (5) 
0

>  <PUBCHEM_ISOTOPIC_ATOM_COUNT>  (5) 
0

>  <PUBCHEM_COMPONENT_COUNT>  (5) 
1

>  <PUBCHEM_CACTVS_TAUTO_COUNT>  (5) 
2

>  <PUBCHEM_CONFORMER_ID>  (5) 
0003402F00000001

>  <PUBCHEM_MMFF94_ENERGY>  (5) 
91.0714

>  <PUBCHEM_FEATURE_SELFOVERLAP>  (5) 
76.625

>  <PUBCHEM_SHAPE_FINGERPRINT>  (5) 
10842077 115 17897989266443278301
11070050 100 18341341067062059490
11399510 152 18194431960174207651
12422481 6 17967800678891211314
12988421 55 18200021971346499160
13540713 4 18042964260111982599
15131766 46 18059850684446332633
17913733 40 18412823594722168010
18393751 57 18266171923351763569
21223535 225 15410896305836384984
255183 313 18194963178408565582
3178227 256 18410300177710099202
4015057 19 17691942900653593989
42626532 9 17753340768004357675
469060 322 18337098090418809733
5171179 24 18193551164686188783
613672 6 17749115500223438343
6695519 79 18341609360414698145

>  <PUBCHEM_SHAPE_MULTIPOLES>  (5) 
729.84
14.38
6.58
3.48
5.81
5.24
2.6
-6.88
11.58
-9.23
-2.21
4.1
-1.51
5.06

>  <PUBCHEM_SHAPE_SELFOVERLAP>  (5) 
1518.518

>  <PUBCHEM_SHAPE_VOLUME>  (5) 
416.9

>  <PUBCHEM_COORDINATE_TYPE>  (5) 
2
5
10

$$$$
Ebselen
     RDKit          3D

 16 18  0  0  0  0  0  0  0  0999 V2000
   -1.8200   -0.0699    0.5228 Se  0  0  0  0  0  2  0  0  0  0  0  0
   -0.0994    0.5495   -1.7025 O   0  0  0  0  0  0  0  0  0  0  0  0
    0.4170   -0.0141    0.4387 N   0  0  0  0  0  0  0  0  0  0  0  0
   -1.8378    0.1324   -0.2430 C   0  0  0  0  0  0  0  0  0  0  0  0
   -2.2036   -0.2168    1.0613 C   0  0  0  0  0  0  0  0  0  0  0  0
   -0.4835    0.2270   -0.5435 C   0  0  0  0  0  0  0  0  0  0  0  0
    1.8399   -0.0443    0.2639 C   0  0  0  0  0  0  0  0  0  0  0  0
   -2.8419    0.3741   -1.2010 C   0  0  0  0  0  0  0  0  0  0  0  0
   -3.5513   -0.3256    1.4142 C   0  0  0  0  0  0  0  0  0  0  0  0
    2.4289   -0.7384   -0.8076 C   0  0  0  0  0  0  0  0  0  0  0  0
    2.6587    0.5805    1.2136 C   0  0  0  0  0  0  0  0  0  0  0  0
   -4.1907    0.2645   -0.8451 C   0  0  0  0  0  0  0  0  0  0  0  0
   -4.5452   -0.0850    0.4614 C   0  0  0  0  0  0  0  0  0  0  0  0
    3.8208   -0.7758   -0.9394 C   0  0  0  0  0  0  0  0  0  0  0  0
    4.0503    0.5418    1.0789 C   0  0  0  0  0  0  0  0  0  0  0  0
    4.6309   -0.1332    0.0012 C   0  0  0  0  0  0  0  0  0  0  0  0
  1  3  1  0
  1  5  1  0
  2  6  2  0
  3  6  1  0
  3  7  1  0
  4  5  2  0
  4  6  1  0
  4  8  1  0
  5  9  1  0
  7 10  2  0
  7 11  1  0
  8 12  2  0
  9 13  2  0
 10 14  1  0
 11 15  2  0
 12 13  1  0
 14 16  2  0
 15 16  1  0
M  END
>  <PUBCHEM_COMPOUND_CID>  (6) 
3194

>  <PUBCHEM_COMPOUND_CANONICALIZED>  (6) 
1

>  <PUBCHEM_CACTVS_COMPLEXITY>  (6) 
275

>  <PUBCHEM_CACTVS_HBOND_ACCEPTOR>  (6) 
1

>  <PUBCHEM_CACTVS_HBOND_DONOR>  (6) 
0

>  <PUBCHEM_CACTVS_ROTATABLE_BOND>  (6) 
1

>  <PUBCHEM_CACTVS_SUBSKEYS>  (6) 
AAADccByIAAAAAAAIAAAAAAAAAAAAWAAAAAwYAAAAAAAAFgBQAAAHgCAAAAADAiBmAAwwIIAAACIAiVSUACCAAAlAgAIiAEAZMgIIDLAlZGEIQhghADIyYcYiACOAAAAAAAAAAAAAAAAAAAAAAAAAAAAAA==

>  <PUBCHEM_IUPAC_OPENEYE_NAME>  (6) 
2-phenyl-1,2-benzoselenazol-3-one

>  <PUBCHEM_IUPAC_CAS_NAME>  (6) 
2-phenyl-1,2-benzoselenazol-3-one

>  <PUBCHEM_IUPAC_NAME_MARKUP>  (6) 
2-phenyl-1,2-benzoselenazol-3-one

>  <PUBCHEM_IUPAC_NAME>  (6) 
2-phenyl-1,2-benzoselenazol-3-one

>  <PUBCHEM_IUPAC_SYSTEMATIC_NAME>  (6) 
2-phenyl-1,2-benzoselenazol-3-one

>  <PUBCHEM_IUPAC_TRADITIONAL_NAME>  (6) 
2-phenyl-1,2-benzoselenazol-3-one

>  <PUBCHEM_IUPAC_INCHI>  (6) 
InChI=1S/C13H9NOSe/c15-13-11-8-4-5-9-12(11)16-14(13)10-6-2-1-3-7-10/h1-9H

>  <PUBCHEM_IUPAC_INCHIKEY>  (6) 
DYEFUKCXAQOFHX-UHFFFAOYSA-N

>  <PUBCHEM_EXACT_MASS>  (6) 
274.98494

>  <PUBCHEM_MOLECULAR_FORMULA>  (6) 
C13H9NOSe

>  <PUBCHEM_MOLECULAR_WEIGHT>  (6) 
274.19

>  <PUBCHEM_SMILES>  (6) 
C1=CC=C(C=C1)N2C(=O)C3=CC=CC=C3[Se]2

>  <PUBCHEM_CONNECTIVITY_SMILES>  (6) 
C1=CC=C(C=C1)N2C(=O)C3=CC=CC=C3[Se]2

>  <PUBCHEM_CACTVS_TPSA>  (6) 
20.3

>  <PUBCHEM_MONOISOTOPIC_WEIGHT>  (6) 
274.98494

>  <PUBCHEM_TOTAL_CHARGE>  (6) 
0

>  <PUBCHEM_HEAVY_ATOM_COUNT>  (6) 
16

>  <PUBCHEM_ATOM_DEF_STEREO_COUNT>  (6) 
0

>  <PUBCHEM_ATOM_UDEF_STEREO_COUNT>  (6) 
0

>  <PUBCHEM_BOND_DEF_STEREO_COUNT>  (6) 
0

>  <PUBCHEM_BOND_UDEF_STEREO_COUNT>  (6) 
0

>  <PUBCHEM_ISOTOPIC_ATOM_COUNT>  (6) 
0

>  <PUBCHEM_COMPONENT_COUNT>  (6) 
1

>  <PUBCHEM_CACTVS_TAUTO_COUNT>  (6) 
-1

>  <PUBCHEM_COORDINATE_TYPE>  (6) 
1
5
255

>  <PUBCHEM_BONDANNOTATIONS>  (6) 
1  3  8
1  5  8
10  14  8
11  15  8
12  13  8
14  16  8
15  16  8
3  6  8
4  5  8
4  6  8
4  8  8
5  9  8
7  10  8
7  11  8
8  12  8
9  13  8

$$$$
Favipiravir(492405)
     RDKit          3D

 11 11  0  0  0  0  0  0  0  0999 V2000
    2.6924    1.6377   -0.0017 F   0  0  0  0  0  0  0  0  0  0  0  0
   -1.0192   -2.1677    0.0071 O   0  0  0  0  0  0  0  0  0  0  0  0
   -2.4032    0.8017    1.1292 O   0  0  0  0  0  0  0  0  0  0  0  0
    1.2342   -1.6108   -0.0163 N   0  0  0  0  0  0  0  0  0  0  0  0
    0.4419    1.0594    0.0219 N   0  0  0  0  0  0  0  0  0  0  0  0
   -2.4023    0.8152   -1.1973 N   0  0  0  0  0  0  0  0  0  0  0  0
   -0.4657    0.1294    0.0236 C   0  0  0  0  0  0  0  0  0  0  0  0
   -0.1165   -1.3449    0.0035 C   0  0  0  0  0  0  0  0  0  0  0  0
    2.1574   -0.6077   -0.0182 C   0  0  0  0  0  0  0  0  0  0  0  0
    1.7535    0.6653    0.0003 C   0  0  0  0  0  0  0  0  0  0  0  0
   -1.8725    0.6225    0.0480 C   0  0  0  0  0  0  0  0  0  0  0  0
  1 10  1  0
  2  8  2  0
  3 11  2  0
  4  8  1  0
  4  9  1  0
  5  7  2  0
  5 10  1  0
  6 11  1  0
  7  8  1  0
  7 11  1  0
  9 10  2  0
M  END
>  <PUBCHEM_COMPOUND_CID>  (7) 
492405

>  <PUBCHEM_CONFORMER_RMSD>  (7) 
0.4

>  <PUBCHEM_CONFORMER_DIVERSEORDER>  (7) 
1
3
4
2

>  <PUBCHEM_MMFF94_PARTIAL_CHARGES>  (7) 
15
1 -0.15
10 0.32
11 0.63
12 0.37
13 0.15
14 0.37
15 0.37
2 -0.57
3 -0.57
4 -0.54
5 -0.62
6 -0.8
7 0.45
8 0.63
9 -0.04

>  <PUBCHEM_EFFECTIVE_ROTOR_COUNT>  (7) 
1

>  <PUBCHEM_PHARMACOPHORE_FEATURES>  (7) 
6
1 2 acceptor
1 3 acceptor
1 4 donor
1 5 acceptor
1 6 donor
6 4 5 7 8 9 10 rings

>  <PUBCHEM_HEAVY_ATOM_COUNT>  (7) 
11

>  <PUBCHEM_ATOM_DEF_STEREO_COUNT>  (7) 
0

>  <PUBCHEM_ATOM_UDEF_STEREO_COUNT>  (7) 
0

>  <PUBCHEM_BOND_DEF_STEREO_COUNT>  (7) 
0

>  <PUBCHEM_BOND_UDEF_STEREO_COUNT>  (7) 
0

>  <PUBCHEM_ISOTOPIC_ATOM_COUNT>  (7) 
0

>  <PUBCHEM_COMPONENT_COUNT>  (7) 
1

>  <PUBCHEM_CACTVS_TAUTO_COUNT>  (7) 
7

>  <PUBCHEM_CONFORMER_ID>  (7) 
0007837500000001

>  <PUBCHEM_MMFF94_ENERGY>  (7) 
18.2856

>  <PUBCHEM_FEATURE_SELFOVERLAP>  (7) 
30.448

>  <PUBCHEM_SHAPE_FINGERPRINT>  (7) 
11206711 2 18050285070258904404
13380535 21 18266196061468549502
16945 1 18338798888556382790
18185500 45 17621315736794077063
21040471 1 18410856572746250554
241688 4 17259910615709676234
2748010 2 18339647853404116318
29004967 10 18118411635212475875
5084963 1 18129647596160728709

>  <PUBCHEM_SHAPE_MULTIPOLES>  (7) 
192.42
3.42
1.83
0.78
0.2
0.73
-0.02
-1.39
-0.05
-0.42
0
0.52
-0.14
0.02

>  <PUBCHEM_SHAPE_SELFOVERLAP>  (7) 
404.254

>  <PUBCHEM_SHAPE_VOLUME>  (7) 
107.4

>  <PUBCHEM_COORDINATE_TYPE>  (7) 
2
5
10

$$$$
HydroxyChloroquine(3652)
     RDKit          3D

 23 24  0  0  1  0  0  0  0  0999 V2000
   -4.9068   -1.9876   -1.6099 Cl  0  0  0  0  0  0  0  0  0  0  0  0
   -0.2693   -2.9958    0.4835 O   0  0  0  0  0  0  0  0  0  0  0  0
    2.9165   -1.2358   -0.1070 N   0  0  0  0  0  0  0  0  0  0  0  0
    0.0406    2.4644   -0.3071 N   0  0  0  0  0  0  0  0  0  0  0  0
   -2.1893   -0.0466    2.2104 N   0  0  0  0  0  0  0  0  0  0  0  0
    2.3087    1.6277    0.0766 C   0  0  0  0  0  0  0  0  0  0  0  0
    2.3903    0.8671   -1.2528 C   0  0  0  0  0  0  0  0  0  0  0  0
    1.4002    2.8618   -0.0060 C   0  0  1  0  0  0  0  0  0  0  0  0
    3.3526   -0.3158   -1.1511 C   0  0  0  0  0  0  0  0  0  0  0  0
    1.5550   -1.7055   -0.3698 C   0  0  0  0  0  0  0  0  0  0  0  0
    1.8790    3.8197   -1.0921 C   0  0  0  0  0  0  0  0  0  0  0  0
    3.8345   -2.3716   -0.0046 C   0  0  0  0  0  0  0  0  0  0  0  0
   -0.7079    1.6265    0.4999 C   0  0  0  0  0  0  0  0  0  0  0  0
    1.0583   -2.5775    0.7722 C   0  0  0  0  0  0  0  0  0  0  0  0
    5.2422   -1.9109    0.3332 C   0  0  0  0  0  0  0  0  0  0  0  0
   -1.7118    0.7631   -0.0086 C   0  0  0  0  0  0  0  0  0  0  0  0
   -0.4750    1.6215    1.8831 C   0  0  0  0  0  0  0  0  0  0  0  0
   -2.4298   -0.0583    0.8856 C   0  0  0  0  0  0  0  0  0  0  0  0
   -1.9890    0.7252   -1.3856 C   0  0  0  0  0  0  0  0  0  0  0  0
   -1.2286    0.7826    2.6787 C   0  0  0  0  0  0  0  0  0  0  0  0
   -3.4099   -0.8967    0.3615 C   0  0  0  0  0  0  0  0  0  0  0  0
   -2.9747   -0.1228   -1.8825 C   0  0  0  0  0  0  0  0  0  0  0  0
   -3.6858   -0.9346   -1.0076 C   0  0  0  0  0  0  0  0  0  0  0  0
  1 23  1  0
  2 14  1  0
  3  9  1  0
  3 10  1  0
  3 12  1  0
  4  8  1  0
  4 13  1  0
  5 18  2  0
  5 20  1  0
  6  7  1  0
  6  8  1  0
  7  9  1  0
  8 11  1  6
 10 14  1  0
 12 15  1  0
 13 16  2  0
 13 17  1  0
 16 18  1  0
 16 19  1  0
 17 20  2  0
 18 21  1  0
 19 22  2  0
 21 23  2  0
 22 23  1  0
M  END
>  <PUBCHEM_COMPOUND_CID>  (8) 
3652

>  <PUBCHEM_CONFORMER_RMSD>  (8) 
1

>  <PUBCHEM_CONFORMER_DIVERSEORDER>  (8) 
2
25
172
286
111
226
295
56
9
131
279
42
266
282
43
253
189
118
275
195
203
156
153
10
285
80
187
233
57
11
232
294
184
301
255
127
79
22
116
231
15
243
112
248
169
53
106
224
200
33
135
38
214
34
199
137
94
298
66
300
140
3
274
28
48
72
175
73
254
180
46
164
259
170
8
177
114
90
27
84
120
201
296
115
216
20
91
128
280
4
249
264
54
121
287
16
70
154
1
290
124
246
50
258
147
277
144
270
139
64
113
136
289
238
281
19
278
87
26
198
77
186
150
176
145
250
166
194
130
76
257
105
107
95
5
302
152
237
297
219
220
162
89
32
39
129
240
126
97
163
288
59
110
134
207
36
44
213
276
293
133
123
117
37
183
125
174
82
252
6
197
83
235
23
211
98
261
40
218
239
283
101
212
86
92
179
161
60
225
102
18
196
62
108
143
271
71
167
256
234
173
209
149
13
229
93
24
119
41
55
263
230
31
85
51
122
269
210
158
29
155
205
188
267
78
75
96
30
47
146
222
159
49
221
292
291
63
151
190
223
251
202
284
206
178
268
17
58
7
244
74
227
228
35
81
138
12
272
185
142
247
182
262
171
65
103
21
68
265
193
160
236
104
61
215
141
191
69
192
14
45
260
52
181
242
299
273
245
100
88
165
241
157
109
204
168
217
132
99
208
67
148

>  <PUBCHEM_MMFF94_PARTIAL_CHARGES>  (8) 
25
1 -0.18
10 0.27
12 0.27
13 0.1
14 0.28
17 -0.15
18 0.31
19 -0.15
2 -0.68
20 0.16
21 -0.15
22 -0.15
23 0.18
3 -0.81
31 0.4
4 -0.87
44 0.15
45 0.15
46 0.15
47 0.15
48 0.15
49 0.4
5 -0.62
8 0.37
9 0.27

>  <PUBCHEM_EFFECTIVE_ROTOR_COUNT>  (8) 
9

>  <PUBCHEM_PHARMACOPHORE_FEATURES>  (8) 
8
1 2 acceptor
1 2 donor
1 3 cation
1 4 cation
1 4 donor
1 5 acceptor
6 16 18 19 21 22 23 rings
6 5 13 16 17 18 20 rings

>  <PUBCHEM_HEAVY_ATOM_COUNT>  (8) 
23

>  <PUBCHEM_ATOM_DEF_STEREO_COUNT>  (8) 
0

>  <PUBCHEM_ATOM_UDEF_STEREO_COUNT>  (8) 
1

>  <PUBCHEM_BOND_DEF_STEREO_COUNT>  (8) 
0

>  <PUBCHEM_BOND_UDEF_STEREO_COUNT>  (8) 
0

>  <PUBCHEM_ISOTOPIC_ATOM_COUNT>  (8) 
0

>  <PUBCHEM_COMPONENT_COUNT>  (8) 
1

>  <PUBCHEM_CACTVS_TAUTO_COUNT>  (8) 
3

>  <PUBCHEM_CONFORMER_ID>  (8) 
00000E4400000002

>  <PUBCHEM_MMFF94_ENERGY>  (8) 
63.8348

>  <PUBCHEM_FEATURE_SELFOVERLAP>  (8) 
40.627

>  <PUBCHEM_SHAPE_FINGERPRINT>  (8) 
11370993 70 17903911498221629501
11578080 2 17845918680901969817
11582403 64 16740823930642966981
12363563 72 18334578993236316844
12539773 59 17845951618889169395
12553582 1 18266200360804594430
12596599 1 17917164796544812310
12824470 246 17988645241778719925
13383661 66 16544145592937815438
14142880 1 17983863272166838977
14787075 74 17415834953963450576
17138139 8 17053294178599512693
17492 54 18262523700995099686
192875 21 18411136918226021522
19433438 48 18127701435005089986
19930381 70 18190174775320641149
23402539 116 18270396075712511166
23419403 2 17678485110595375275
23728640 28 17400922994888414056
238 59 18187926239228166692
3323516 105 18261947553007961351
6287921 2 17559976332718027678

>  <PUBCHEM_SHAPE_MULTIPOLES>  (8) 
454.39
7.81
3.79
1.96
0.7
1.11
0.86
-6.6
-2.97
3.33
-0.38
-1.66
0.5
-1.55

>  <PUBCHEM_SHAPE_SELFOVERLAP>  (8) 
928.093

>  <PUBCHEM_SHAPE_VOLUME>  (8) 
264.8

>  <PUBCHEM_COORDINATE_TYPE>  (8) 
2
5
10

$$$$
Ivermectin
     RDKit          3D

 62 68  0  0  1  0  0  0  0  0999 V2000
   -5.3441    2.3887   -0.5223 O   0  0  0  0  0  0  0  0  0  0  0  0
   -3.3766    1.9824   -1.7585 O   0  0  0  0  0  0  0  0  0  0  0  0
   -4.7679   -1.8750   -1.2051 O   0  0  0  0  0  0  0  0  0  0  0  0
   -3.7472   -6.1846    2.2996 O   0  0  0  0  0  0  0  0  0  0  0  0
   -4.9560   -3.3459    1.9172 O   0  0  0  0  0  0  0  0  0  0  0  0
   -4.5176   -7.1052   -0.2741 O   0  0  0  0  0  0  0  0  0  0  0  0
   -6.8026   -2.1524   -0.1457 O   0  0  0  0  0  0  0  0  0  0  0  0
    2.3907   -0.4356    0.9100 O   0  0  0  0  0  0  0  0  0  0  0  0
    4.6144   -0.9824    0.9451 O   0  0  0  0  0  0  0  0  0  0  0  0
    6.7140    1.1606    0.6151 O   0  0  0  0  0  0  0  0  0  0  0  0
    4.9415    0.2101   -2.4099 O   0  0  0  0  0  0  0  0  0  0  0  0
    8.2930    1.3960    2.2613 O   0  0  0  0  0  0  0  0  0  0  0  0
   10.9796    0.9509   -0.4039 O   0  0  0  0  0  0  0  0  0  0  0  0
   11.6525    2.8817    2.0907 O   0  0  0  0  0  0  0  0  0  0  0  0
   -4.7988    1.8745   -1.7359 C   0  0  2  0  0  0  0  0  0  0  0  0
   -5.0211    3.7608   -0.3138 C   0  0  1  0  0  0  0  0  0  0  0  0
   -5.6782    4.6378   -1.4307 C   0  0  2  0  0  0  0  0  0  0  0  0
   -5.3898    2.6462   -2.9394 C   0  0  0  0  0  0  0  0  0  0  0  0
   -5.2347    0.3981   -1.9003 C   0  0  0  0  0  0  0  0  0  0  0  0
   -5.1706    4.1485   -2.7968 C   0  0  0  0  0  0  0  0  0  0  0  0
   -4.5520   -0.5059   -0.8750 C   0  0  2  0  0  0  0  0  0  0  0  0
   -2.7513    1.2342   -0.7199 C   0  0  1  0  0  0  0  0  0  0  0  0
   -3.0458   -0.2577   -0.9006 C   0  0  0  0  0  0  0  0  0  0  0  0
   -5.4149    4.1069    1.1595 C   0  0  2  0  0  0  0  0  0  0  0  0
   -4.6557   -4.3565    0.9790 C   0  0  2  0  0  0  0  0  0  0  0  0
   -5.4478   -4.1374   -0.3742 C   0  0  2  0  0  0  0  0  0  0  0  0
   -4.9337   -5.7168    1.6716 C   0  0  1  0  0  0  0  0  0  0  0  0
   -5.3879    6.1421   -1.3067 C   0  0  0  0  0  0  0  0  0  0  0  0
   -1.2370    1.5503   -0.7306 C   0  0  0  0  0  0  0  0  0  0  0  0
   -6.9306    4.3144    1.4050 C   0  0  0  0  0  0  0  0  0  0  0  0
   -5.4856   -6.7791    0.6998 C   0  0  1  0  0  0  0  0  0  0  0  0
   -3.1771   -4.4593    0.8258 C   0  0  0  0  0  0  0  0  0  0  0  0
   -4.6046    5.2801    1.7446 C   0  0  0  0  0  0  0  0  0  0  0  0
   -5.7538   -2.6750   -0.6179 C   0  0  0  0  0  0  0  0  0  0  0  0
   -6.7150   -4.9666   -0.4404 C   0  0  0  0  0  0  0  0  0  0  0  0
   -6.7340   -6.2223    0.0357 C   0  0  0  0  0  0  0  0  0  0  0  0
   -2.6560   -5.4636    1.7796 C   0  0  0  0  0  0  0  0  0  0  0  0
   -0.3726    0.5869    0.0761 C   0  0  0  0  0  0  0  0  0  0  0  0
   -7.7543    3.0490    1.1437 C   0  0  0  0  0  0  0  0  0  0  0  0
   -2.4057   -3.7013    0.0269 C   0  0  0  0  0  0  0  0  0  0  0  0
    0.4090   -0.3903   -0.4574 C   0  0  0  0  0  0  0  0  0  0  0  0
    1.3367   -1.2520    0.4165 C   0  0  2  0  0  0  0  0  0  0  0  0
   -7.9910   -7.0511   -0.0694 C   0  0  0  0  0  0  0  0  0  0  0  0
    0.6702   -2.0465    1.5902 C   0  0  2  0  0  0  0  0  0  0  0  0
   -1.0035   -3.4135    0.3432 C   0  0  0  0  0  0  0  0  0  0  0  0
    3.5693   -0.4965    0.1200 C   0  0  2  0  0  0  0  0  0  0  0  0
    6.3090    0.2506   -0.3955 C   0  0  2  0  0  0  0  0  0  0  0  0
    5.1732    0.9145   -1.2027 C   0  0  2  0  0  0  0  0  0  0  0  0
    3.8854    0.9217   -0.3769 C   0  0  0  0  0  0  0  0  0  0  0  0
   -0.7310   -2.5060    1.2863 C   0  0  0  0  0  0  0  0  0  0  0  0
    5.8563   -1.0844    0.2608 C   0  0  2  0  0  0  0  0  0  0  0  0
    0.5186   -0.5552   -1.9592 C   0  0  0  0  0  0  0  0  0  0  0  0
    0.7075   -1.3270    2.9499 C   0  0  0  0  0  0  0  0  0  0  0  0
    8.1071    1.1009    0.8817 C   0  0  2  0  0  0  0  0  0  0  0  0
    8.8502    2.0487   -0.0868 C   0  0  0  0  0  0  0  0  0  0  0  0
   10.3585    2.0634    0.2203 C   0  0  1  0  0  0  0  0  0  0  0  0
   10.6300    1.9803    1.7445 C   0  0  2  0  0  0  0  0  0  0  0  0
    5.8959   -2.2924   -0.6916 C   0  0  0  0  0  0  0  0  0  0  0  0
    9.3509    2.2993    2.5545 C   0  0  2  0  0  0  0  0  0  0  0  0
    9.6270    2.2273    4.0591 C   0  0  0  0  0  0  0  0  0  0  0  0
    5.6290    0.8124   -3.4853 C   0  0  0  0  0  0  0  0  0  0  0  0
   11.5818    1.3211   -1.6247 C   0  0  0  0  0  0  0  0  0  0  0  0
 15  1  1  0
 16  1  1  6
  2 15  1  0
  2 22  1  0
  3 21  1  0
  3 34  1  0
 27  4  1  6
  4 37  1  0
 25  5  1  1
 31  6  1  6
  7 34  2  0
 42  8  1  1
 46  8  1  1
  9 46  1  0
  9 51  1  0
 47 10  1  1
 54 10  1  6
 48 11  1  6
 11 61  1  0
 12 54  1  0
 12 59  1  0
 56 13  1  6
 13 62  1  0
 57 14  1  1
 15 18  1  6
 15 19  1  0
 16 17  1  0
 16 24  1  0
 17 20  1  0
 17 28  1  1
 18 20  1  0
 21 19  1  6
 21 23  1  0
 22 23  1  0
 22 29  1  6
 24 30  1  0
 24 33  1  6
 25 26  1  0
 25 27  1  0
 25 32  1  0
 26 34  1  0
 26 35  1  1
 27 31  1  0
 29 38  1  0
 30 39  1  0
 31 36  1  0
 32 37  1  0
 32 40  2  0
 35 36  2  0
 36 43  1  0
 38 41  2  0
 40 45  1  0
 41 42  1  0
 41 52  1  0
 42 44  1  0
 44 50  1  0
 44 53  1  1
 45 50  2  0
 46 49  1  0
 47 48  1  0
 47 51  1  0
 48 49  1  0
 51 58  1  6
 54 55  1  0
 55 56  1  0
 56 57  1  0
 57 59  1  0
 59 60  1  1
M  END
>  <PUBCHEM_COMPOUND_CID>  (9) 
6321424

>  <PUBCHEM_COMPOUND_CANONICALIZED>  (9) 
1

>  <PUBCHEM_CACTVS_COMPLEXITY>  (9) 
1680

>  <PUBCHEM_CACTVS_HBOND_ACCEPTOR>  (9) 
14

>  <PUBCHEM_CACTVS_HBOND_DONOR>  (9) 
3

>  <PUBCHEM_CACTVS_ROTATABLE_BOND>  (9) 
8

>  <PUBCHEM_CACTVS_SUBSKEYS>  (9) 
AAADcfB8PAAAAAAAAAAAAAAAAAAAASAAAAAkSJEiAAAAAEAAAAAAGgAACAAADVSwgAMCCAAABgCIAiDSCAAAAAAgAAAICAEAAAgZFBYAIQAiUAAF4AAPsAPK7OzOgAAAAAAAAAAAAAAAAAAAAAAAAAAAAA==

>  <PUBCHEM_IUPAC_OPENEYE_NAME>  (9) 
(1R,4S,5'S,6R,6'R,8R,10E,12S,13S,14E,16E,20R,21R,24S)-21,24-dihydroxy-12-[(2R,4S,5S,6S)-5-[(2S,4S,5S,6S)-5-hydroxy-4-methoxy-6-methyl-tetrahydropyran-2-yl]oxy-4-methoxy-6-methyl-tetrahydropyran-2-yl]oxy-5',11,13,22-tetramethyl-6'-[(1S)-1-methylpropyl]spiro[3,7,19-trioxatetracyclo[15.6.1.14,8.020,24]pentacosa-10,14,16,22-tetraene-6,2'-tetrahydropyran]-2-one

>  <PUBCHEM_IUPAC_CAS_NAME>  (9) 
(1R,4S,5'S,6R,6'R,8R,10E,12S,13S,14E,16E,20R,21R,24S)-6'-[(2S)-butan-2-yl]-21,24-dihydroxy-12-[[(2R,4S,5S,6S)-5-[[(2S,4S,5S,6S)-5-hydroxy-4-methoxy-6-methyl-2-oxanyl]oxy]-4-methoxy-6-methyl-2-oxanyl]oxy]-5',11,13,22-tetramethyl-2-spiro[3,7,19-trioxatetracyclo[15.6.1.14,8.020,24]pentacosa-10,14,16,22-tetraene-6,2'-oxane]one

>  <PUBCHEM_IUPAC_NAME_MARKUP>  (9) 
(1<I>R</I>,4<I>S</I>,5&apos;<I>S</I>,6<I>R</I>,6&apos;<I>R</I>,8<I>R</I>,10<I>E</I>,12<I>S</I>,13<I>S</I>,14<I>E</I>,16<I>E</I>,20<I>R</I>,21<I>R</I>,24<I>S</I>)-6&apos;-[(2<I>S</I>)-butan-2-yl]-21,24-dihydroxy-12-[(2<I>R</I>,4<I>S</I>,5<I>S</I>,6<I>S</I>)-5-[(2<I>S</I>,4<I>S</I>,5<I>S</I>,6<I>S</I>)-5-hydroxy-4-methoxy-6-methyloxan-2-yl]oxy-4-methoxy-6-methyloxan-2-yl]oxy-5&apos;,11,13,22-tetramethylspiro[3,7,19-trioxatetracyclo[15.6.1.1<SUP>4,8</SUP>.0<SUP>20,24</SUP>]pentacosa-10,14,16,22-tetraene-6,2&apos;-oxane]-2-one

>  <PUBCHEM_IUPAC_NAME>  (9) 
(1R,4S,5'S,6R,6'R,8R,10E,12S,13S,14E,16E,20R,21R,24S)-6'-[(2S)-butan-2-yl]-21,24-dihydroxy-12-[(2R,4S,5S,6S)-5-[(2S,4S,5S,6S)-5-hydroxy-4-methoxy-6-methyloxan-2-yl]oxy-4-methoxy-6-methyloxan-2-yl]oxy-5',11,13,22-tetramethylspiro[3,7,19-trioxatetracyclo[15.6.1.14,8.020,24]pentacosa-10,14,16,22-tetraene-6,2'-oxane]-2-one

>  <PUBCHEM_IUPAC_SYSTEMATIC_NAME>  (9) 
(1R,4S,5'S,6R,6'R,8R,10E,12S,13S,14E,16E,20R,21R,24S)-6'-[(2S)-butan-2-yl]-12-[(2R,4S,5S,6S)-4-methoxy-5-[(2S,4S,5S,6S)-4-methoxy-6-methyl-5-oxidanyl-oxan-2-yl]oxy-6-methyl-oxan-2-yl]oxy-5',11,13,22-tetramethyl-21,24-bis(oxidanyl)spiro[3,7,19-trioxatetracyclo[15.6.1.14,8.020,24]pentacosa-10,14,16,22-tetraene-6,2'-oxane]-2-one

>  <PUBCHEM_IUPAC_TRADITIONAL_NAME>  (9) 
(1R,4S,5'S,6R,6'R,8R,10E,12S,13S,14E,16E,20R,21R,24S)-21,24-dihydroxy-12-[(2R,4S,5S,6S)-5-[(2S,4S,5S,6S)-5-hydroxy-4-methoxy-6-methyl-tetrahydropyran-2-yl]oxy-4-methoxy-6-methyl-tetrahydropyran-2-yl]oxy-5',11,13,22-tetramethyl-6'-[(1S)-1-methylpropyl]spiro[3,7,19-trioxatetracyclo[15.6.1.14,8.020,24]pentacosa-10,14,16,22-tetraene-6,2'-tetrahydropyran]-2-one

>  <PUBCHEM_IUPAC_INCHI>  (9) 
InChI=1S/C48H74O14/c1-11-25(2)43-28(5)17-18-47(62-43)23-34-20-33(61-47)16-15-27(4)42(26(3)13-12-14-32-24-55-45-40(49)29(6)19-35(46(51)58-34)48(32,45)52)59-39-22-37(54-10)44(31(8)57-39)60-38-21-36(53-9)41(50)30(7)56-38/h12-15,19,25-26,28,30-31,33-45,49-50,52H,11,16-18,20-24H2,1-10H3/b13-12+,27-15+,32-14+/t25-,26-,28-,30-,31-,33+,34-,35-,36-,37-,38-,39-,40+,41-,42-,43+,44-,45+,47+,48+/m0/s1

>  <PUBCHEM_IUPAC_INCHIKEY>  (9) 
AZSNMRSAGSSBNP-XPNPUAGNSA-N

>  <PUBCHEM_XLOGP3_AA>  (9) 
4.1

>  <PUBCHEM_EXACT_MASS>  (9) 
874.50785703

>  <PUBCHEM_MOLECULAR_FORMULA>  (9) 
C48H74O14

>  <PUBCHEM_MOLECULAR_WEIGHT>  (9) 
875.1

>  <PUBCHEM_SMILES>  (9) 
CC[C@H](C)[C@@H]1[C@H](CC[C@@]2(O1)C[C@@H]3C[C@H](O2)C/C=C(/[C@H]([C@H](/C=C/C=C/4\CO[C@H]5[C@@]4([C@@H](C=C([C@H]5O)C)C(=O)O3)O)C)O[C@H]6C[C@@H]([C@H]([C@@H](O6)C)O[C@H]7C[C@@H]([C@H]([C@@H](O7)C)O)OC)OC)\C)C

>  <PUBCHEM_CONNECTIVITY_SMILES>  (9) 
CCC(C)C1C(CCC2(O1)CC3CC(O2)CC=C(C(C(C=CC=C4COC5C4(C(C=C(C5O)C)C(=O)O3)O)C)OC6CC(C(C(O6)C)OC7CC(C(C(O7)C)O)OC)OC)C)C

>  <PUBCHEM_CACTVS_TPSA>  (9) 
170

>  <PUBCHEM_MONOISOTOPIC_WEIGHT>  (9) 
874.50785703

>  <PUBCHEM_TOTAL_CHARGE>  (9) 
0

>  <PUBCHEM_HEAVY_ATOM_COUNT>  (9) 
62

>  <PUBCHEM_ATOM_DEF_STEREO_COUNT>  (9) 
20

>  <PUBCHEM_ATOM_UDEF_STEREO_COUNT>  (9) 
0

>  <PUBCHEM_BOND_DEF_STEREO_COUNT>  (9) 
3

>  <PUBCHEM_BOND_UDEF_STEREO_COUNT>  (9) 
0

>  <PUBCHEM_ISOTOPIC_ATOM_COUNT>  (9) 
0

>  <PUBCHEM_COMPONENT_COUNT>  (9) 
1

>  <PUBCHEM_CACTVS_TAUTO_COUNT>  (9) 
-1

>  <PUBCHEM_COORDINATE_TYPE>  (9) 
1
5
255

>  <PUBCHEM_BONDANNOTATIONS>  (9) 
15  1  5
47  10  5
54  10  5
48  11  6
56  13  6
57  14  5
16  63  6
17  28  6
21  71  5
22  72  5
24  33  6
26  76  6
27  77  5
44  53  5
25  5  5
51  58  6
59  60  6
31  6  6
42  8  5
46  8  5

$$$$
Lopinavir
     RDKit          3D

 46 49  0  0  1  0  0  0  0  0999 V2000
   -0.9618    1.1871    1.1644 O   0  0  0  0  0  0  0  0  0  0  0  0
   -3.0511   -2.6029    1.0172 O   0  0  0  0  0  0  0  0  0  0  0  0
   -4.9808    1.9899    2.3363 O   0  0  0  0  0  0  0  0  0  0  0  0
    3.3576    0.2496    2.2361 O   0  0  0  0  0  0  0  0  0  0  0  0
    5.8734    0.2471    0.8321 O   0  0  0  0  0  0  0  0  0  0  0  0
   -5.2888    0.1794    0.8633 N   0  0  0  0  0  0  0  0  0  0  0  0
   -2.6500   -0.6222   -0.1520 N   0  0  0  0  0  0  0  0  0  0  0  0
    2.5216    0.5985    0.0727 N   0  0  0  0  0  0  0  0  0  0  0  0
   -5.8413    2.5273    0.2394 N   0  0  0  0  0  0  0  0  0  0  0  0
   -1.4280   -1.1054   -0.8056 C   0  0  2  0  0  0  0  0  0  0  0  0
   -4.4464   -0.7471    1.6600 C   0  0  1  0  0  0  0  0  0  0  0  0
   -0.3721    0.0210   -0.8612 C   0  0  0  0  0  0  0  0  0  0  0  0
    0.0845    0.4856    0.5410 C   0  0  1  0  0  0  0  0  0  0  0  0
   -5.2896   -1.7479    2.5088 C   0  0  0  0  0  0  0  0  0  0  0  0
    1.3546    1.3764    0.5108 C   0  0  2  0  0  0  0  0  0  0  0  0
   -1.7515   -1.5990   -2.2296 C   0  0  0  0  0  0  0  0  0  0  0  0
   -3.3790   -1.4031    0.8089 C   0  0  0  0  0  0  0  0  0  0  0  0
   -6.0399   -0.2701   -0.3206 C   0  0  0  0  0  0  0  0  0  0  0  0
   -5.8914    0.7347   -1.4661 C   0  0  0  0  0  0  0  0  0  0  0  0
    1.1929    2.6356   -0.3665 C   0  0  0  0  0  0  0  0  0  0  0  0
   -5.3591    1.5812    1.2042 C   0  0  0  0  0  0  0  0  0  0  0  0
   -6.1241   -2.7469    1.6886 C   0  0  0  0  0  0  0  0  0  0  0  0
   -6.1918   -1.0039    3.5029 C   0  0  0  0  0  0  0  0  0  0  0  0
   -6.4164    2.1097   -1.0382 C   0  0  0  0  0  0  0  0  0  0  0  0
   -2.7390   -2.7383   -2.2163 C   0  0  0  0  0  0  0  0  0  0  0  0
    2.3970    3.5365   -0.2486 C   0  0  0  0  0  0  0  0  0  0  0  0
    3.5084    0.1016    0.9901 C   0  0  0  0  0  0  0  0  0  0  0  0
   -2.3393   -4.0209   -1.8036 C   0  0  0  0  0  0  0  0  0  0  0  0
   -4.0808   -2.5172   -2.5657 C   0  0  0  0  0  0  0  0  0  0  0  0
    3.3709    3.5583   -1.2606 C   0  0  0  0  0  0  0  0  0  0  0  0
    2.5810    4.3277    0.8988 C   0  0  0  0  0  0  0  0  0  0  0  0
    4.7512   -0.5555    0.4837 C   0  0  0  0  0  0  0  0  0  0  0  0
   -3.2735   -5.0590   -1.7266 C   0  0  0  0  0  0  0  0  0  0  0  0
   -5.0130   -3.5559   -2.4845 C   0  0  0  0  0  0  0  0  0  0  0  0
   -4.6104   -4.8255   -2.0636 C   0  0  0  0  0  0  0  0  0  0  0  0
    4.4989    4.3742   -1.1348 C   0  0  0  0  0  0  0  0  0  0  0  0
    3.7172    5.1324    1.0250 C   0  0  0  0  0  0  0  0  0  0  0  0
    4.6741    5.1578    0.0061 C   0  0  0  0  0  0  0  0  0  0  0  0
    7.1653   -0.0446    0.3853 C   0  0  0  0  0  0  0  0  0  0  0  0
    7.7272    0.7400   -0.6399 C   0  0  0  0  0  0  0  0  0  0  0  0
    7.9191   -1.0884    0.9676 C   0  0  0  0  0  0  0  0  0  0  0  0
    9.0217    0.4604   -1.0998 C   0  0  0  0  0  0  0  0  0  0  0  0
    9.2049   -1.3656    0.4758 C   0  0  0  0  0  0  0  0  0  0  0  0
    6.9490    1.8834   -1.2234 C   0  0  0  0  0  0  0  0  0  0  0  0
    7.3690   -1.9240    2.0896 C   0  0  0  0  0  0  0  0  0  0  0  0
    9.7508   -0.5950   -0.5515 C   0  0  0  0  0  0  0  0  0  0  0  0
 13  1  1  6
  2 17  2  0
  3 21  2  0
  4 27  2  0
  5 32  1  0
  5 39  1  0
  6 11  1  0
  6 18  1  0
  6 21  1  0
 10  7  1  0
  7 17  1  0
 15  8  1  0
  8 27  1  0
  9 21  1  0
  9 24  1  0
 10 12  1  6
 10 16  1  0
 11 14  1  6
 11 17  1  0
 12 13  1  0
 13 15  1  0
 14 22  1  0
 14 23  1  0
 15 20  1  6
 16 25  1  0
 18 19  1  0
 19 24  1  0
 20 26  1  0
 25 28  2  0
 25 29  1  0
 26 30  2  0
 26 31  1  0
 27 32  1  0
 28 33  1  0
 29 34  2  0
 30 36  1  0
 31 37  2  0
 33 35  2  0
 34 35  1  0
 36 38  2  0
 37 38  1  0
 39 40  2  0
 39 41  1  0
 40 42  1  0
 40 44  1  0
 41 43  2  0
 41 45  1  0
 42 46  2  0
 43 46  1  0
M  END
>  <PUBCHEM_COMPOUND_CID>  (10) 
92727

>  <PUBCHEM_COMPOUND_CANONICALIZED>  (10) 
1

>  <PUBCHEM_CACTVS_COMPLEXITY>  (10) 
940

>  <PUBCHEM_CACTVS_HBOND_ACCEPTOR>  (10) 
5

>  <PUBCHEM_CACTVS_HBOND_DONOR>  (10) 
4

>  <PUBCHEM_CACTVS_ROTATABLE_BOND>  (10) 
15

>  <PUBCHEM_CACTVS_SUBSKEYS>  (10) 
AAADcfB/uAAAAAAAAAAAAAAAAAAAAAAAAAA8YMEAAAAAAAABUAAAHgAQCAAADTzhmAYzBoPABgCIAiFSEAICCAAgIAAIiIHMCIiOdjKE8T+XeCCu1hOYqAeQwPAOAAACAAAIAAAAAAQAABAAAAAAAAAAAA==

>  <PUBCHEM_IUPAC_OPENEYE_NAME>  (10) 
(2S)-N-[(1S,3S,4S)-1-benzyl-4-[[2-(2,6-dimethylphenoxy)acetyl]amino]-3-hydroxy-5-phenyl-pentyl]-3-methyl-2-(2-oxohexahydropyrimidin-1-yl)butanamide

>  <PUBCHEM_IUPAC_CAS_NAME>  (10) 
(2S)-N-[(2S,4S,5S)-5-[[2-(2,6-dimethylphenoxy)-1-oxoethyl]amino]-4-hydroxy-1,6-diphenylhexan-2-yl]-3-methyl-2-(2-oxo-1,3-diazinan-1-yl)butanamide

>  <PUBCHEM_IUPAC_NAME_MARKUP>  (10) 
(2<I>S</I>)-<I>N</I>-[(2<I>S</I>,4<I>S</I>,5<I>S</I>)-5-[[2-(2,6-dimethylphenoxy)acetyl]amino]-4-hydroxy-1,6-diphenylhexan-2-yl]-3-methyl-2-(2-oxo-1,3-diazinan-1-yl)butanamide

>  <PUBCHEM_IUPAC_NAME>  (10) 
(2S)-N-[(2S,4S,5S)-5-[[2-(2,6-dimethylphenoxy)acetyl]amino]-4-hydroxy-1,6-diphenylhexan-2-yl]-3-methyl-2-(2-oxo-1,3-diazinan-1-yl)butanamide

>  <PUBCHEM_IUPAC_SYSTEMATIC_NAME>  (10) 
(2S)-N-[(2S,4S,5S)-5-[2-(2,6-dimethylphenoxy)ethanoylamino]-4-oxidanyl-1,6-diphenyl-hexan-2-yl]-3-methyl-2-(2-oxidanylidene-1,3-diazinan-1-yl)butanamide

>  <PUBCHEM_IUPAC_TRADITIONAL_NAME>  (10) 
(2S)-N-[(1S,3S,4S)-1-benzyl-4-[[2-(2,6-dimethylphenoxy)acetyl]amino]-3-hydroxy-5-phenyl-pentyl]-2-(2-ketohexahydropyrimidin-1-yl)-3-methyl-butyramide

>  <PUBCHEM_IUPAC_INCHI>  (10) 
InChI=1S/C37H48N4O5/c1-25(2)34(41-20-12-19-38-37(41)45)36(44)39-30(21-28-15-7-5-8-16-28)23-32(42)31(22-29-17-9-6-10-18-29)40-33(43)24-46-35-26(3)13-11-14-27(35)4/h5-11,13-18,25,30-32,34,42H,12,19-24H2,1-4H3,(H,38,45)(H,39,44)(H,40,43)/t30-,31-,32-,34-/m0/s1

>  <PUBCHEM_IUPAC_INCHIKEY>  (10) 
KJHKTHWMRKYKJE-SUGCFTRWSA-N

>  <PUBCHEM_XLOGP3_AA>  (10) 
5.9

>  <PUBCHEM_EXACT_MASS>  (10) 
628.36247064

>  <PUBCHEM_MOLECULAR_FORMULA>  (10) 
C37H48N4O5

>  <PUBCHEM_MOLECULAR_WEIGHT>  (10) 
628.8

>  <PUBCHEM_SMILES>  (10) 
CC1=C(C(=CC=C1)C)OCC(=O)N[C@@H](CC2=CC=CC=C2)[C@H](C[C@H](CC3=CC=CC=C3)NC(=O)[C@H](C(C)C)N4CCCNC4=O)O

>  <PUBCHEM_CONNECTIVITY_SMILES>  (10) 
CC1=C(C(=CC=C1)C)OCC(=O)NC(CC2=CC=CC=C2)C(CC(CC3=CC=CC=C3)NC(=O)C(C(C)C)N4CCCNC4=O)O

>  <PUBCHEM_CACTVS_TPSA>  (10) 
120

>  <PUBCHEM_MONOISOTOPIC_WEIGHT>  (10) 
628.36247064

>  <PUBCHEM_TOTAL_CHARGE>  (10) 
0

>  <PUBCHEM_HEAVY_ATOM_COUNT>  (10) 
46

>  <PUBCHEM_ATOM_DEF_STEREO_COUNT>  (10) 
4

>  <PUBCHEM_ATOM_UDEF_STEREO_COUNT>  (10) 
0

>  <PUBCHEM_BOND_DEF_STEREO_COUNT>  (10) 
0

>  <PUBCHEM_BOND_UDEF_STEREO_COUNT>  (10) 
0

>  <PUBCHEM_ISOTOPIC_ATOM_COUNT>  (10) 
0

>  <PUBCHEM_COMPONENT_COUNT>  (10) 
1

>  <PUBCHEM_CACTVS_TAUTO_COUNT>  (10) 
-1

>  <PUBCHEM_COORDINATE_TYPE>  (10) 
1
5
255

>  <PUBCHEM_BONDANNOTATIONS>  (10) 
13  1  6
11  17  5
25  28  8
25  29  8
26  30  8
26  31  8
28  33  8
29  34  8
30  36  8
31  37  8
33  35  8
34  35  8
36  38  8
37  38  8
39  40  8
39  41  8
40  42  8
41  43  8
42  46  8
43  46  8
10  7  6
15  8  5

$$$$
Molnupiravir(145996610)
     RDKit          3D

 23 24  0  0  1  0  0  0  0  0999 V2000
   -0.4262    1.2372    1.0608 O   0  0  0  0  0  0  0  0  0  0  0  0
   -0.4126    4.2109    0.4188 O   0  0  0  0  0  0  0  0  0  0  0  0
    1.7373    3.2421   -0.9712 O   0  0  0  0  0  0  0  0  0  0  0  0
   -2.8860    0.1413    0.2831 O   0  0  0  0  0  0  0  0  0  0  0  0
    3.6639    1.2012    0.7703 O   0  0  0  0  0  0  0  0  0  0  0  0
   -3.8028   -0.8496   -1.5869 O   0  0  0  0  0  0  0  0  0  0  0  0
    4.8921   -3.1905   -0.2251 O   0  0  0  0  0  0  0  0  0  0  0  0
    1.5850    0.3229    0.2877 N   0  0  0  0  0  0  0  0  0  0  0  0
    3.6099   -0.9856    0.1645 N   0  0  0  0  0  0  0  0  0  0  0  0
    3.5476   -3.2256   -0.4574 N   0  0  0  0  0  0  0  0  0  0  0  0
   -0.6396    3.0782   -0.4193 C   0  0  1  0  0  0  0  0  0  0  0  0
    0.6620    2.3617   -0.7205 C   0  0  2  0  0  0  0  0  0  0  0  0
   -1.4152    2.0224    0.3597 C   0  0  1  0  0  0  0  0  0  0  0  0
    0.8768    1.5450    0.5415 C   0  0  1  0  0  0  0  0  0  0  0  0
   -2.2151    1.0843   -0.5342 C   0  0  0  0  0  0  0  0  0  0  0  0
    0.8651   -0.7957   -0.1045 C   0  0  0  0  0  0  0  0  0  0  0  0
    2.9934    0.2264    0.4251 C   0  0  0  0  0  0  0  0  0  0  0  0
   -3.6579   -0.7846   -0.3731 C   0  0  0  0  0  0  0  0  0  0  0  0
    1.4391   -1.9697   -0.3605 C   0  0  0  0  0  0  0  0  0  0  0  0
   -4.2987   -1.7293    0.6283 C   0  0  0  0  0  0  0  0  0  0  0  0
    2.9157   -2.0303   -0.2038 C   0  0  0  0  0  0  0  0  0  0  0  0
   -5.6622   -2.2016    0.1307 C   0  0  0  0  0  0  0  0  0  0  0  0
   -3.3717   -2.9112    0.8859 C   0  0  0  0  0  0  0  0  0  0  0  0
  1 13  1  0
  1 14  1  0
 11  2  1  1
 12  3  1  1
  4 15  1  0
  4 18  1  0
  5 17  2  0
  6 18  2  0
  7 10  1  0
 14  8  1  6
  8 16  1  0
  8 17  1  0
  9 17  1  0
  9 21  2  0
 10 21  1  0
 11 12  1  0
 11 13  1  0
 12 14  1  0
 13 15  1  6
 16 19  2  0
 18 20  1  0
 19 21  1  0
 20 22  1  0
 20 23  1  0
M  END
>  <PUBCHEM_COMPOUND_CID>  (11) 
145996610

>  <PUBCHEM_CONFORMER_RMSD>  (11) 
0.8

>  <PUBCHEM_CONFORMER_DIVERSEORDER>  (11) 
1
34
31
99
114
66
71
55
43
95
109
33
61
57
23
44
110
106
107
102
70
85
112
59
69
42
90
45
38
108
15
103
64
46
79
93
86
54
19
83
68
26
30
11
41
67
89
8
10
94
82
48
81
73
88
51
35
77
29
13
47
101
105
17
28
4
14
16
97
78
87
20
50
100
9
56
63
12
113
72
21
60
52
115
37
2
75
58
84
7
65
80
6
32
76
92
18
53
111
104
91
62
25
22
74
5
39
24
40
96
3
49
36
27
98

>  <PUBCHEM_MMFF94_PARTIAL_CHARGES>  (11) 
27
1 -0.56
10 -0.47
11 0.28
12 0.28
13 0.28
14 0.58
15 0.28
16 -0.04
17 0.84
18 0.66
19 -0.14
2 -0.68
20 0.06
21 0.49
3 -0.68
30 0.4
31 0.4
32 0.15
33 0.15
4 -0.43
41 0.4
42 0.4
5 -0.57
6 -0.57
7 -0.38
8 -0.47
9 -0.66

>  <PUBCHEM_EFFECTIVE_ROTOR_COUNT>  (11) 
7

>  <PUBCHEM_PHARMACOPHORE_FEATURES>  (11) 
12
1 1 acceptor
1 10 donor
1 2 acceptor
1 2 donor
1 3 acceptor
1 3 donor
1 5 acceptor
1 6 acceptor
1 9 donor
3 20 22 23 hydrophobe
5 1 11 12 13 14 rings
6 8 9 16 17 19 21 rings

>  <PUBCHEM_HEAVY_ATOM_COUNT>  (11) 
23

>  <PUBCHEM_ATOM_DEF_STEREO_COUNT>  (11) 
4

>  <PUBCHEM_ATOM_UDEF_STEREO_COUNT>  (11) 
0

>  <PUBCHEM_BOND_DEF_STEREO_COUNT>  (11) 
0

>  <PUBCHEM_BOND_UDEF_STEREO_COUNT>  (11) 
0

>  <PUBCHEM_ISOTOPIC_ATOM_COUNT>  (11) 
0

>  <PUBCHEM_COMPONENT_COUNT>  (11) 
1

>  <PUBCHEM_CACTVS_TAUTO_COUNT>  (11) 
-1

>  <PUBCHEM_CONFORMER_ID>  (11) 
08B3BB4200000001

>  <PUBCHEM_MMFF94_ENERGY>  (11) 
61.2935

>  <PUBCHEM_FEATURE_SELFOVERLAP>  (11) 
60.955

>  <PUBCHEM_SHAPE_FINGERPRINT>  (11) 
10411042 1 18410858728604282866
10616163 171 18053100618864073678
12107183 9 18269852964861299219
12363563 72 18409172099579435307
12403259 226 18268144263208524914
12506688 2 18339643438114367513
12553582 1 18410583881046329425
13140716 1 18270402668085805977
13402501 40 18116994592869911571
13533116 47 18195531622416429923
13544653 18 18343577443357735255
13911987 19 17756452678359695268
14790565 3 17689720087638161228
14863182 85 18193837278522893396
14866123 147 18051976914260019233
15352361 1 18410573981184077195
15422964 175 18410849984166367125
15927050 60 17114665671200338748
17492 89 18411136917967662515
17859628 70 18049730912578700643
19141452 34 18053106124975269465
19591789 44 17256816018526179925
20645477 70 18046054124367988307
20681677 274 18338793391198814586
20775530 9 18411417271942143139
21033650 10 16805880663515971525
21197605 99 17326340321185596619
21279426 13 18335410233165522095
21421861 104 18126032527137040689
21452121 199 18408597080430276433
221490 88 18341610352995371770
22849339 104 17620492215591120814
23379529 103 18270408174435203598
23466295 7 18051986822101204975
23559900 14 18196921185527190368
255183 313 17771321344495410850
3421961 26 18340206405358304513
3737641 26 18342746212620027046
392239 28 17345169285874373128
4280585 95 18190170205470221546
46194498 28 17677326259820770045
5104073 3 18129092334621164058
5309563 4 18411982442752677559
613672 6 18337371786814536875
9709674 26 18410569557050744563

>  <PUBCHEM_SHAPE_MULTIPOLES>  (11) 
417.3
8.99
4.86
0.93
6.72
1.53
0.09
-10.74
-0.1
-2.63
0.29
0.37
0.1
0.77

>  <PUBCHEM_SHAPE_SELFOVERLAP>  (11) 
866.212

>  <PUBCHEM_SHAPE_VOLUME>  (11) 
237.3

>  <PUBCHEM_COORDINATE_TYPE>  (11) 
2
5
10

$$$$
Nelfinavir(64143)
     RDKit          3D

 40 43  0  0  1  0  0  0  0  0999 V2000
    1.9070   -2.4154   -0.2953 S   0  0  0  0  0  0  0  0  0  0  0  0
   -2.6024    0.2994   -1.6346 O   0  0  0  0  0  0  0  0  0  0  0  0
    1.1304    0.5919    3.1233 O   0  0  0  0  0  0  0  0  0  0  0  0
    2.1813    2.2130   -0.8633 O   0  0  0  0  0  0  0  0  0  0  0  0
    7.1928    1.9640   -2.6103 O   0  0  0  0  0  0  0  0  0  0  0  0
   -1.7693    0.7783    0.8069 N   0  0  0  0  0  0  0  0  0  0  0  0
   -4.2449   -1.2148   -0.9803 N   0  0  0  0  0  0  0  0  0  0  0  0
    2.5648    0.4790    0.6272 N   0  0  0  0  0  0  0  0  0  0  0  0
   -4.5316    1.7706    1.3930 C   0  0  2  0  0  0  0  0  0  0  0  0
   -3.2814    2.6509    1.5735 C   0  0  1  0  0  0  0  0  0  0  0  0
   -4.1587    0.2811    1.4953 C   0  0  0  0  0  0  0  0  0  0  0  0
   -2.1417    2.1919    0.6446 C   0  0  0  0  0  0  0  0  0  0  0  0
   -5.2991    2.0976    0.1005 C   0  0  0  0  0  0  0  0  0  0  0  0
   -3.6084    4.1420    1.3891 C   0  0  0  0  0  0  0  0  0  0  0  0
   -2.9149   -0.1328    0.6944 C   0  0  1  0  0  0  0  0  0  0  0  0
   -5.6376    3.5824    0.0057 C   0  0  0  0  0  0  0  0  0  0  0  0
   -4.3848    4.4436    0.1110 C   0  0  0  0  0  0  0  0  0  0  0  0
   -1.0201    0.5495    2.0427 C   0  0  0  0  0  0  0  0  0  0  0  0
   -3.2146   -0.3156   -0.7655 C   0  0  0  0  0  0  0  0  0  0  0  0
    0.4748    0.8596    1.8816 C   0  0  2  0  0  0  0  0  0  0  0  0
    1.1836    0.0656    0.7602 C   0  0  2  0  0  0  0  0  0  0  0  0
   -4.7408   -1.5493   -2.2958 C   0  0  0  0  0  0  0  0  0  0  0  0
    1.0964   -1.4470    1.0177 C   0  0  0  0  0  0  0  0  0  0  0  0
   -5.8766   -2.5704   -2.1647 C   0  0  0  0  0  0  0  0  0  0  0  0
   -5.2622   -0.2774   -2.9728 C   0  0  0  0  0  0  0  0  0  0  0  0
   -3.6029   -2.1511   -3.1284 C   0  0  0  0  0  0  0  0  0  0  0  0
    2.9470    1.5326   -0.1855 C   0  0  0  0  0  0  0  0  0  0  0  0
    4.4047    1.8146   -0.2338 C   0  0  0  0  0  0  0  0  0  0  0  0
    1.6369   -4.0849    0.2856 C   0  0  0  0  0  0  0  0  0  0  0  0
    5.1143    1.7511   -1.4329 C   0  0  0  0  0  0  0  0  0  0  0  0
    5.0635    2.1483    0.9496 C   0  0  0  0  0  0  0  0  0  0  0  0
    0.9474   -4.3054    1.4779 C   0  0  0  0  0  0  0  0  0  0  0  0
    2.1162   -5.1665   -0.4532 C   0  0  0  0  0  0  0  0  0  0  0  0
    6.4826    2.0214   -1.4488 C   0  0  0  0  0  0  0  0  0  0  0  0
    4.4159    1.3943   -2.7067 C   0  0  0  0  0  0  0  0  0  0  0  0
    6.4319    2.4185    0.9337 C   0  0  0  0  0  0  0  0  0  0  0  0
    0.7370   -5.6076    1.9313 C   0  0  0  0  0  0  0  0  0  0  0  0
    1.9057   -6.4688    0.0003 C   0  0  0  0  0  0  0  0  0  0  0  0
    7.1415    2.3549   -0.2654 C   0  0  0  0  0  0  0  0  0  0  0  0
    1.2163   -6.6893    1.1925 C   0  0  0  0  0  0  0  0  0  0  0  0
  1 23  1  0
  1 29  1  0
  2 19  2  0
 20  3  1  1
  4 27  2  0
  5 34  1  0
  6 12  1  0
  6 15  1  0
  6 18  1  0
  7 19  1  0
  7 22  1  0
  8 21  1  0
  8 27  1  0
  9 10  1  0
  9 11  1  6
  9 13  1  0
 10 12  1  6
 10 14  1  0
 11 15  1  0
 13 16  1  0
 14 17  1  0
 15 19  1  6
 16 17  1  0
 18 20  1  0
 20 21  1  0
 21 23  1  1
 22 24  1  0
 22 25  1  0
 22 26  1  0
 27 28  1  0
 28 30  2  0
 28 31  1  0
 29 32  2  0
 29 33  1  0
 30 34  1  0
 30 35  1  0
 31 36  2  0
 32 37  1  0
 33 38  2  0
 34 39  2  0
 36 39  1  0
 37 40  2  0
 38 40  1  0
M  END
>  <PUBCHEM_COMPOUND_CID>  (12) 
64143

>  <PUBCHEM_CONFORMER_RMSD>  (12) 
1.4

>  <PUBCHEM_CONFORMER_DIVERSEORDER>  (12) 
1
21
84
153
101
123
82
146
125
17
85
73
20
32
151
113
8
57
53
6
52
117
108
155
94
19
118
148
88
54
130
70
105
150
142
135
56
2
77
61
92
106
139
116
7
51
96
80
93
34
132
115
24
147
122
121
67
36
124
66
145
141
112
44
110
58
104
11
79
149
50
143
60
10
46
100
74
55
129
25
30
131
114
97
47
102
111
140
134
81
16
28
109
144
152
48
86
45
126
39
87
65
29
4
95
156
35
133
27
62
78
49
75
98
99
68
15
63
90
69
107
3
103
64
41
59
76
22
9
136
12
157
33
26
23
119
89
38
71
31
138
154
14
43
127
120
72
128
18
37
42
40
137
83
5
91
13

>  <PUBCHEM_MMFF94_PARTIAL_CHARGES>  (12) 
42
1 -0.33
12 0.27
15 0.33
18 0.27
19 0.57
2 -0.57
20 0.28
21 0.3
22 0.3
23 0.23
27 0.54
28 0.09
29 0.1
3 -0.68
30 -0.14
31 -0.15
32 -0.15
33 -0.15
34 0.08
35 0.14
36 -0.15
37 -0.15
38 -0.15
39 -0.15
4 -0.57
40 -0.15
5 -0.53
59 0.37
6 -0.81
61 0.4
64 0.37
7 -0.73
74 0.15
75 0.15
76 0.15
8 -0.73
80 0.15
81 0.15
82 0.15
83 0.15
84 0.15
85 0.45

>  <PUBCHEM_EFFECTIVE_ROTOR_COUNT>  (12) 
13.6

>  <PUBCHEM_PHARMACOPHORE_FEATURES>  (12) 
13
1 2 acceptor
1 3 acceptor
1 3 donor
1 4 acceptor
1 5 donor
1 6 cation
1 7 donor
1 8 donor
4 22 24 25 26 hydrophobe
6 28 30 31 34 36 39 rings
6 29 32 33 37 38 40 rings
6 6 9 10 11 12 15 rings
6 9 10 13 14 16 17 rings

>  <PUBCHEM_HEAVY_ATOM_COUNT>  (12) 
40

>  <PUBCHEM_ATOM_DEF_STEREO_COUNT>  (12) 
5

>  <PUBCHEM_ATOM_UDEF_STEREO_COUNT>  (12) 
0

>  <PUBCHEM_BOND_DEF_STEREO_COUNT>  (12) 
0

>  <PUBCHEM_BOND_UDEF_STEREO_COUNT>  (12) 
0

>  <PUBCHEM_ISOTOPIC_ATOM_COUNT>  (12) 
0

>  <PUBCHEM_COMPONENT_COUNT>  (12) 
1

>  <PUBCHEM_CACTVS_TAUTO_COUNT>  (12) 
12

>  <PUBCHEM_CONFORMER_ID>  (12) 
0000FA8F00000001

>  <PUBCHEM_MMFF94_ENERGY>  (12) 
106.283

>  <PUBCHEM_FEATURE_SELFOVERLAP>  (12) 
66.023

>  <PUBCHEM_SHAPE_FINGERPRINT>  (12) 
10032420 55 18130495444200979297
10319688 77 17470141684274524266
10721379 63 18052271596134557976
11421498 54 18270101526886733871
11991303 11 17825385439061262902
13690498 29 17703225234654346413
13911987 19 18189607414530907799
15064981 113 18187641419363593252
15439362 3 18118695322292951744
19319366 153 18342181024936020931
19958102 18 18337956809306142254
20505436 4 17987259766991243505
22393880 68 17989485238265708768
23559900 14 17977103453547379345
340366 18 17766549158792973763
4409770 3 18048885387894744490
504843 32 17969224610910731106
563151 97 18410570691006883420
6058803 2 18127403450458884667
6691757 9 18267867358440949680

>  <PUBCHEM_SHAPE_MULTIPOLES>  (12) 
788.61
15.86
8.74
2.82
9.48
18.24
1.5
-18.8
9.61
4.55
-3.03
-1.39
0.57
-6.09

>  <PUBCHEM_SHAPE_SELFOVERLAP>  (12) 
1639.542

>  <PUBCHEM_SHAPE_VOLUME>  (12) 
450.8

>  <PUBCHEM_COORDINATE_TYPE>  (12) 
2
5
10

$$$$
Nirmatrelvir(155903259)
     RDKit          3D

 35 37  0  0  1  0  0  0  0  0999 V2000
   -5.2651    0.3853    2.1308 F   0  0  0  0  0  0  0  0  0  0  0  0
   -5.8314    2.2135    1.0849 F   0  0  0  0  0  0  0  0  0  0  0  0
   -4.0158    2.1639    2.2891 F   0  0  0  0  0  0  0  0  0  0  0  0
    1.8747   -1.8859   -1.5122 O   0  0  0  0  0  0  0  0  0  0  0  0
    0.0035    0.6408    0.8113 O   0  0  0  0  0  0  0  0  0  0  0  0
   -4.4964    0.3236   -0.6689 O   0  0  0  0  0  0  0  0  0  0  0  0
    3.7449    2.9461    1.9493 O   0  0  0  0  0  0  0  0  0  0  0  0
   -0.6890   -1.0865   -0.5681 N   0  0  0  0  0  0  0  0  0  0  0  0
    2.3460   -1.5920    0.7482 N   0  0  0  0  0  0  0  0  0  0  0  0
   -2.6719    1.4254    0.2686 N   0  0  0  0  0  0  0  0  0  0  0  0
    4.2828    3.4118   -0.2800 N   0  0  0  0  0  0  0  0  0  0  0  0
    5.1671   -3.1201    1.8606 N   0  0  0  0  0  0  0  0  0  0  0  0
   -0.4011   -3.4218   -0.4812 C   0  0  1  0  0  0  0  0  0  0  0  0
   -1.8334   -3.9081   -0.3288 C   0  0  0  0  0  0  0  0  0  0  0  0
   -1.4027   -3.1035   -1.5436 C   0  0  1  0  0  0  0  0  0  0  0  0
    0.1127   -2.1288    0.0777 C   0  0  1  0  0  0  0  0  0  0  0  0
   -1.5341   -1.6173   -1.6420 C   0  0  0  0  0  0  0  0  0  0  0  0
   -2.0815   -5.3814   -0.5422 C   0  0  0  0  0  0  0  0  0  0  0  0
   -2.7379   -3.3010    0.7122 C   0  0  0  0  0  0  0  0  0  0  0  0
    1.5277   -1.8669   -0.3343 C   0  0  0  0  0  0  0  0  0  0  0  0
   -0.7181    0.2182   -0.0939 C   0  0  0  0  0  0  0  0  0  0  0  0
   -1.7133    1.1335   -0.7618 C   0  0  2  0  0  0  0  0  0  0  0  0
   -1.0657    2.3878   -1.3950 C   0  0  0  0  0  0  0  0  0  0  0  0
    3.7515   -1.2850    0.6147 C   0  0  1  0  0  0  0  0  0  0  0  0
   -0.2991    3.2418   -0.3672 C   0  0  0  0  0  0  0  0  0  0  0  0
   -2.1514    3.2635   -2.0527 C   0  0  0  0  0  0  0  0  0  0  0  0
   -0.0789    1.9478   -2.4966 C   0  0  0  0  0  0  0  0  0  0  0  0
    4.0750    0.1111    1.1604 C   0  0  0  0  0  0  0  0  0  0  0  0
    3.6419    1.2203    0.2219 C   0  0  2  0  0  0  0  0  0  0  0  0
   -3.9901    0.9930    0.2272 C   0  0  0  0  0  0  0  0  0  0  0  0
    4.5427   -2.3102    1.3122 C   0  0  0  0  0  0  0  0  0  0  0  0
    4.4285    1.2436   -1.0918 C   0  0  0  0  0  0  0  0  0  0  0  0
    3.8964    2.6052    0.7865 C   0  0  0  0  0  0  0  0  0  0  0  0
   -4.7723    1.4370    1.4280 C   0  0  0  0  0  0  0  0  0  0  0  0
    4.3538    2.6954   -1.5233 C   0  0  0  0  0  0  0  0  0  0  0  0
  1 34  1  0
  2 34  1  0
  3 34  1  0
  4 20  2  0
  5 21  2  0
  6 30  2  0
  7 33  2  0
  8 16  1  0
  8 17  1  0
  8 21  1  0
  9 20  1  0
  9 24  1  0
 22 10  1  1
 10 30  1  0
 11 33  1  0
 11 35  1  0
 12 31  3  0
 13 14  1  1
 13 15  1  0
 13 16  1  0
 14 15  1  0
 14 18  1  0
 14 19  1  0
 15 17  1  1
 16 20  1  6
 21 22  1  0
 22 23  1  0
 23 25  1  0
 23 26  1  0
 23 27  1  0
 24 28  1  1
 24 31  1  0
 29 28  1  1
 29 32  1  0
 29 33  1  0
 30 34  1  0
 32 35  1  0
M  END
>  <PUBCHEM_COMPOUND_CID>  (13) 
155903259

>  <PUBCHEM_CONFORMER_RMSD>  (13) 
1.2

>  <PUBCHEM_CONFORMER_DIVERSEORDER>  (13) 
1
30
86
15
75
52
85
78
91
62
96
68
79
66
21
41
58
89
22
73
82
13
81
36
10
23
49
9
57
19
97
44
2
93
60
87
18
77
83
92
69
94
28
3
95
72
43
51
26
55
16
88
27
74
80
65
70
11
5
38
90
61
47
42
25
31
34
17
39
50
40
33
12
6
84
64
67
35
71
59
8
24
29
48
54
76
56
32
53
14
45
7
20
37
4
46
63

>  <PUBCHEM_MMFF94_PARTIAL_CHARGES>  (13) 
34
1 -0.34
10 -0.73
11 -0.73
12 -0.56
13 -0.19
14 -0.19
15 -0.19
16 0.46
17 0.4
18 0.09
19 0.09
2 -0.34
20 0.57
21 0.57
22 0.36
24 0.5
29 0.06
3 -0.34
30 0.57
31 0.36
33 0.57
34 1.08
35 0.3
36 0.1
37 0.1
4 -0.57
48 0.37
5 -0.57
50 0.37
6 -0.57
67 0.37
7 -0.57
8 -0.66
9 -0.73

>  <PUBCHEM_EFFECTIVE_ROTOR_COUNT>  (13) 
12.6

>  <PUBCHEM_PHARMACOPHORE_FEATURES>  (13) 
12
1 10 donor
1 11 donor
1 12 acceptor
1 4 acceptor
1 5 acceptor
1 6 acceptor
1 7 acceptor
1 9 donor
3 14 18 19 hydrophobe
4 23 25 26 27 hydrophobe
5 11 29 32 33 35 rings
6 8 13 14 15 16 17 rings

>  <PUBCHEM_HEAVY_ATOM_COUNT>  (13) 
35

>  <PUBCHEM_ATOM_DEF_STEREO_COUNT>  (13) 
6

>  <PUBCHEM_ATOM_UDEF_STEREO_COUNT>  (13) 
0

>  <PUBCHEM_BOND_DEF_STEREO_COUNT>  (13) 
0

>  <PUBCHEM_BOND_UDEF_STEREO_COUNT>  (13) 
0

>  <PUBCHEM_ISOTOPIC_ATOM_COUNT>  (13) 
0

>  <PUBCHEM_COMPONENT_COUNT>  (13) 
1

>  <PUBCHEM_CACTVS_TAUTO_COUNT>  (13) 
-1

>  <PUBCHEM_CONFORMER_ID>  (13) 
094AE51B00000001

>  <PUBCHEM_MMFF94_ENERGY>  (13) 
85.2601

>  <PUBCHEM_FEATURE_SELFOVERLAP>  (13) 
60.898

>  <PUBCHEM_SHAPE_FINGERPRINT>  (13) 
10006869 2 18340483477830779439
10010297 198 17823435936045546726
10165383 225 18339093648310662492
10190108 129 17901684974232894643
10670039 82 17973159815146319844
10871710 139 17902235838554162860
1100329 8 18341040840231897082
11115154 58 17197106958909889703
11445158 3 18188487952605917414
11513181 2 17917440860132249815
11578080 2 16197097722715491351
12107698 1 17969221136271255832
12156800 1 17907612407015850653
12160290 23 17911766323359590047
12422481 6 18114467756172331485
12608794 3 18265882592948472799
12633257 1 18270955757116107868
12788726 201 17330856014875954357
13140716 1 18409164411361245578
13583140 156 17533205367390378851
140371 6 17830735722243944958
14395042 24 18192987347940527979
14784336 7 16325409900600984831
14790565 3 18341898472212564809
14840074 17 18187654630082135157
14910700 183 18335710386665314163
14955137 171 18049724019103462498
150020 26 18046898282788796816
16067690 210 16558488442569536025
17980427 23 17915150517809271018
1979834 28 18120678859034579257
20642791 268 17698453126688550369
20739085 24 18264223434487393565
21033648 144 18339623625746781340
21033648 29 17838019678056651064
21458453 9 18263104217897336683
21583282 1 17967830352719435654
23559900 14 17034739430824713447
283562 15 17762614392923422906
392239 28 18339077069456506357
469060 322 18191852449944987479
5081480 168 16985472612554112236
5252454 2 18410575132567797268
57527293 21 18261686891453238771
57527358 35 15503807099239265111
5912855 24 18265052616531145322
6287921 2 18198633120377520125

>  <PUBCHEM_SHAPE_MULTIPOLES>  (13) 
650.08
10.4
6.33
1.99
3
4.54
-0.07
-4.83
-5.79
-1.69
0.91
-0.6
-1.06
-2.68

>  <PUBCHEM_SHAPE_SELFOVERLAP>  (13) 
1357.016

>  <PUBCHEM_SHAPE_VOLUME>  (13) 
371.5

>  <PUBCHEM_COORDINATE_TYPE>  (13) 
2
5
10

$$$$
Nitazoxanide(41684)
     RDKit          3D

 21 22  0  0  0  0  0  0  0  0999 V2000
    2.9371   -1.0475    0.6259 S   0  0  0  0  0  0  0  0  0  0  0  0
   -3.2229    1.2594   -0.4866 O   0  0  0  0  0  0  0  0  0  0  0  0
   -0.7480    0.9482   -1.3611 O   0  0  0  0  0  0  0  0  0  0  0  0
   -2.9022    1.5719    1.8109 O   0  0  0  0  0  0  0  0  0  0  0  0
    6.3318    0.6738   -0.0929 O   0  0  0  0  0  0  0  0  0  0  0  0
    5.8120   -1.1006    1.0985 O   0  0  0  0  0  0  0  0  0  0  0  0
    0.4478   -0.6079   -0.0666 N   0  0  0  0  0  0  0  0  0  0  0  0
    2.1449    0.8942   -0.8857 N   0  0  0  0  0  0  0  0  0  0  0  0
    5.4710   -0.1360    0.3558 N   0  0  0  0  0  0  0  0  0  0  0  0
   -1.9465   -0.7673   -0.3520 C   0  0  0  0  0  0  0  0  0  0  0  0
   -3.1626   -0.0874   -0.2869 C   0  0  0  0  0  0  0  0  0  0  0  0
   -0.7071   -0.0570   -0.6353 C   0  0  0  0  0  0  0  0  0  0  0  0
   -1.9063   -2.1462   -0.1448 C   0  0  0  0  0  0  0  0  0  0  0  0
   -4.3386   -0.7862   -0.0141 C   0  0  0  0  0  0  0  0  0  0  0  0
   -3.0823   -2.8451    0.1278 C   0  0  0  0  0  0  0  0  0  0  0  0
    1.7582   -0.1395   -0.2041 C   0  0  0  0  0  0  0  0  0  0  0  0
   -4.2984   -2.1651    0.1931 C   0  0  0  0  0  0  0  0  0  0  0  0
    4.1220    0.0380    0.0267 C   0  0  0  0  0  0  0  0  0  0  0  0
    3.5157    1.0001   -0.7535 C   0  0  0  0  0  0  0  0  0  0  0  0
   -3.0725    2.0188    0.6844 C   0  0  0  0  0  0  0  0  0  0  0  0
   -3.1534    3.4811    0.3604 C   0  0  0  0  0  0  0  0  0  0  0  0
  1 16  1  0
  1 18  1  0
  2 11  1  0
  2 20  1  0
  3 12  2  0
  4 20  2  0
  5  9  1  0
  6  9  2  0
  7 12  1  0
  7 16  1  0
  8 16  2  0
  8 19  1  0
  9 18  1  0
 10 11  2  0
 10 12  1  0
 10 13  1  0
 11 14  1  0
 13 15  2  0
 14 17  2  0
 15 17  1  0
 18 19  2  0
 20 21  1  0
M  CHG  2   5  -1   9   1
M  END
>  <PUBCHEM_COMPOUND_CID>  (14) 
41684

>  <PUBCHEM_CONFORMER_RMSD>  (14) 
0.8

>  <PUBCHEM_CONFORMER_DIVERSEORDER>  (14) 
6
14
17
15
35
9
31
23
16
30
7
27
13
12
29
10
28
24
34
19
11
25
33
18
32
20
21
2
26
22
4
5
8
1
3

>  <PUBCHEM_MMFF94_PARTIAL_CHARGES>  (14) 
27
1 -0.08
10 0.09
11 0.08
12 0.54
13 -0.15
14 -0.15
15 -0.15
16 0.44
17 -0.15
18 0.12
19 0.08
2 -0.23
20 0.66
21 0.06
22 0.15
23 0.15
24 0.37
25 0.15
26 0.15
27 0.15
3 -0.57
4 -0.57
5 -0.52
6 -0.52
7 -0.49
8 -0.57
9 0.96

>  <PUBCHEM_EFFECTIVE_ROTOR_COUNT>  (14) 
6

>  <PUBCHEM_PHARMACOPHORE_FEATURES>  (14) 
8
1 3 acceptor
1 4 acceptor
1 5 acceptor
1 5 anion
1 6 acceptor
1 7 donor
5 1 8 16 18 19 rings
6 10 11 13 14 15 17 rings

>  <PUBCHEM_HEAVY_ATOM_COUNT>  (14) 
21

>  <PUBCHEM_ATOM_DEF_STEREO_COUNT>  (14) 
0

>  <PUBCHEM_ATOM_UDEF_STEREO_COUNT>  (14) 
0

>  <PUBCHEM_BOND_DEF_STEREO_COUNT>  (14) 
0

>  <PUBCHEM_BOND_UDEF_STEREO_COUNT>  (14) 
0

>  <PUBCHEM_ISOTOPIC_ATOM_COUNT>  (14) 
0

>  <PUBCHEM_COMPONENT_COUNT>  (14) 
1

>  <PUBCHEM_CACTVS_TAUTO_COUNT>  (14) 
3

>  <PUBCHEM_CONFORMER_ID>  (14) 
0000A2D400000006

>  <PUBCHEM_MMFF94_ENERGY>  (14) 
55.3753

>  <PUBCHEM_FEATURE_SELFOVERLAP>  (14) 
40.677

>  <PUBCHEM_SHAPE_FINGERPRINT>  (14) 
10366900 7 17988914596220714139
10595046 47 18334858376795945990
10912923 1 18113616794628216984
11036077 4 18336257938453765938
11315181 36 18334012821978269700
12107183 9 17903631887492938170
12236239 1 18113897178166464638
12596602 18 18409442605605012624
13073987 5 18410007746144670418
13167823 11 18260824930140358610
13403585 85 18272927258858660808
13583140 156 17704062989215086514
13675066 3 17846498132451128718
14178342 30 18409175389191925567
14341114 176 18337956800125292176
14420673 8 18193839228818198198
14565420 104 17338463098659972193
15042514 8 18195249038673986383
15326921 28 17685751555511715360
17780758 139 18409440388948076810
17844677 252 18341337768774939688
1813 80 16950568749027389534
19489759 90 18131346397486604232
200 152 18187078503010475334
20510252 161 18343027692334829667
20681677 274 18196650915740067401
21033648 29 16917056746866524458
21065198 48 18335136480023012098
21267235 1 18114467854581805406
21401589 2 17558846000742617577
2297311 6 18271257121859799063
2306618 200 18187358827500258677
23402539 116 18272365412996768767
23522609 53 17824285751793229852
23557571 272 18130794451503308316
23559900 14 18266167504104592729
312423 11 18042136490959457652
4214541 1 18408038515806931406
5104073 3 18409718553148516136
559249 180 18186792556841038122
573450 72 18408317787602634194
67856867 119 18116715316874011636
6992083 37 18114190713574951237

>  <PUBCHEM_SHAPE_MULTIPOLES>  (14) 
391.73
12.11
2.83
0.99
18.94
1.11
0.14
-0.99
2.23
-5.02
0.57
-0.01
0.3
-1.16

>  <PUBCHEM_SHAPE_SELFOVERLAP>  (14) 
827.61

>  <PUBCHEM_SHAPE_VOLUME>  (14) 
220.2

>  <PUBCHEM_COORDINATE_TYPE>  (14) 
2
5
10

$$$$
Remdesivir(121304016)
     RDKit          3D

 42 45  0  0  1  0  0  0  0  0999 V2000
    0.7186    0.1097   -0.7666 P   0  0  1  0  0  0  0  0  0  0  0  0
   -2.8379    2.0149   -0.7980 O   0  0  0  0  0  0  0  0  0  0  0  0
   -4.6028    3.1073    2.1472 O   0  0  0  0  0  0  0  0  0  0  0  0
   -3.3301    4.7557    0.3676 O   0  0  0  0  0  0  0  0  0  0  0  0
   -0.0764    1.5219   -0.9343 O   0  0  0  0  0  0  0  0  0  0  0  0
   -0.3889   -0.7774    0.0186 O   0  0  0  0  0  0  0  0  0  0  0  0
    1.0570   -0.4658   -2.1188 O   0  0  0  0  0  0  0  0  0  0  0  0
    5.5671    0.7854    0.0445 O   0  0  0  0  0  0  0  0  0  0  0  0
    4.2564   -0.3904    1.5313 O   0  0  0  0  0  0  0  0  0  0  0  0
   -3.9014   -0.5985   -0.5828 N   0  0  0  0  0  0  0  0  0  0  0  0
   -3.3401   -0.3913   -1.7985 N   0  0  0  0  0  0  0  0  0  0  0  0
    1.9784    0.3737    0.2767 N   0  0  0  0  0  0  0  0  0  0  0  0
   -6.0695    2.9373   -1.0400 N   0  0  0  0  0  0  0  0  0  0  0  0
   -3.4518   -2.7805   -2.0953 N   0  0  0  0  0  0  0  0  0  0  0  0
   -4.3078   -4.2694   -0.5126 N   0  0  0  0  0  0  0  0  0  0  0  0
   -3.9598    1.8429    0.1059 C   0  0  2  0  0  0  0  0  0  0  0  0
   -3.5295    2.5821    1.3896 C   0  0  1  0  0  0  0  0  0  0  0  0
   -2.5850    3.6571    0.8879 C   0  0  1  0  0  0  0  0  0  0  0  0
   -1.8790    2.9446   -0.2531 C   0  0  1  0  0  0  0  0  0  0  0  0
   -4.2179    0.3575    0.3466 C   0  0  0  0  0  0  0  0  0  0  0  0
   -0.6555    2.1555    0.1944 C   0  0  0  0  0  0  0  0  0  0  0  0
   -5.1418    2.4560   -0.5361 C   0  0  0  0  0  0  0  0  0  0  0  0
   -4.7681   -0.2807    1.4377 C   0  0  0  0  0  0  0  0  0  0  0  0
   -4.2422   -1.8355   -0.0999 C   0  0  0  0  0  0  0  0  0  0  0  0
   -4.7842   -1.6702    1.1562 C   0  0  0  0  0  0  0  0  0  0  0  0
   -3.9947   -2.9954   -0.9227 C   0  0  0  0  0  0  0  0  0  0  0  0
    3.2285    0.9063   -0.2619 C   0  0  2  0  0  0  0  0  0  0  0  0
   -3.1498   -1.4865   -2.4787 C   0  0  0  0  0  0  0  0  0  0  0  0
    7.9923    0.9026    0.0299 C   0  0  0  0  0  0  0  0  0  0  0  0
    6.7374    0.3342    0.7124 C   0  0  0  0  0  0  0  0  0  0  0  0
    8.0198    0.6129   -1.4875 C   0  0  0  0  0  0  0  0  0  0  0  0
    9.2469    0.4225    0.7855 C   0  0  0  0  0  0  0  0  0  0  0  0
    4.3740    0.3454    0.5599 C   0  0  0  0  0  0  0  0  0  0  0  0
    3.2118    2.4272   -0.1933 C   0  0  0  0  0  0  0  0  0  0  0  0
   -0.1809   -2.0233    0.5458 C   0  0  0  0  0  0  0  0  0  0  0  0
    8.0925   -0.8605   -1.8640 C   0  0  0  0  0  0  0  0  0  0  0  0
   10.5473    1.0069    0.2529 C   0  0  0  0  0  0  0  0  0  0  0  0
    0.7452   -2.8841   -0.0430 C   0  0  0  0  0  0  0  0  0  0  0  0
   -0.8951   -2.4321    1.6719 C   0  0  0  0  0  0  0  0  0  0  0  0
    0.9573   -4.1539    0.4943 C   0  0  0  0  0  0  0  0  0  0  0  0
   -0.6833   -3.7016    2.2094 C   0  0  0  0  0  0  0  0  0  0  0  0
    0.2429   -4.5626    1.6206 C   0  0  0  0  0  0  0  0  0  0  0  0
  1  5  1  0
  1  6  1  0
  1  7  2  0
  1 12  1  1
  2 16  1  0
  2 19  1  0
 17  3  1  6
 18  4  1  6
  5 21  1  0
  6 35  1  0
  8 30  1  0
  8 33  1  0
  9 33  2  0
 10 11  1  0
 10 20  1  0
 10 24  1  0
 11 28  2  0
 12 27  1  0
 13 22  3  0
 14 26  2  0
 14 28  1  0
 15 26  1  0
 16 17  1  0
 16 20  1  0
 16 22  1  6
 17 18  1  0
 18 19  1  0
 19 21  1  1
 20 23  2  0
 23 25  1  0
 24 25  2  0
 24 26  1  0
 27 33  1  0
 27 34  1  1
 29 30  1  0
 29 31  1  0
 29 32  1  0
 31 36  1  0
 32 37  1  0
 35 38  2  0
 35 39  1  0
 38 40  1  0
 39 41  2  0
 40 42  2  0
 41 42  1  0
M  END
>  <PUBCHEM_COMPOUND_CID>  (15) 
121304016

>  <PUBCHEM_CONFORMER_RMSD>  (15) 
1.4

>  <PUBCHEM_CONFORMER_DIVERSEORDER>  (15) 
1
131
148
102
68
105
12
61
57
10
134
65
42
46
40
82
121
79
3
140
157
104
28
152
23
108
20
98
86
94
153
156
35
69
167
135
129
85
95
151
55
62
113
13
141
143
59
34
114
163
91
87
99
66
142
33
15
7
159
126
75
111
92
64
4
70
76
112
83
96
37
127
80
109
133
161
78
5
93
30
164
101
158
88
138
155
24
51
132
63
77
146
53
14
136
29
103
2
45
115
166
39
147
128
49
125
116
38
58
60
122
119
74
160
123
31
107
84
90
162
27
118
165
18
54
124
8
72
17
11
120
6
106
73
97
137
48
21
130
9
36
56
89
67
47
43
50
44
139
32
150
52
16
22
144
26
100
117
154
41
110
145
71
25
81
149
19

>  <PUBCHEM_MMFF94_PARTIAL_CHARGES>  (15) 
49
1 1.51
10 0.51
11 -0.65
12 -0.9
13 -0.56
14 -0.66
15 -0.85
16 0.66
17 0.28
18 0.28
19 0.28
2 -0.56
20 -0.33
21 0.28
22 0.36
23 -0.15
24 -0.24
25 -0.15
26 0.58
27 0.33
28 0.6
3 -0.68
30 0.28
33 0.66
35 0.08
38 -0.15
39 -0.15
4 -0.68
40 -0.15
41 -0.15
42 -0.15
48 0.4
49 0.15
5 -0.55
50 0.4
51 0.15
52 0.36
55 0.06
6 -0.35
62 0.4
63 0.4
7 -0.7
73 0.15
74 0.15
75 0.15
76 0.15
77 0.15
8 -0.43
9 -0.57

>  <PUBCHEM_EFFECTIVE_ROTOR_COUNT>  (15) 
15

>  <PUBCHEM_PHARMACOPHORE_FEATURES>  (15) 
17
1 13 acceptor
1 15 donor
1 2 acceptor
1 3 acceptor
1 3 donor
1 36 hydrophobe
1 37 hydrophobe
1 4 acceptor
1 4 donor
1 7 acceptor
1 9 acceptor
3 11 14 28 cation
3 14 15 26 cation
5 10 20 23 24 25 rings
5 2 16 17 18 19 rings
6 10 11 14 24 26 28 rings
6 35 38 39 40 41 42 rings

>  <PUBCHEM_HEAVY_ATOM_COUNT>  (15) 
42

>  <PUBCHEM_ATOM_DEF_STEREO_COUNT>  (15) 
6

>  <PUBCHEM_ATOM_UDEF_STEREO_COUNT>  (15) 
0

>  <PUBCHEM_BOND_DEF_STEREO_COUNT>  (15) 
0

>  <PUBCHEM_BOND_UDEF_STEREO_COUNT>  (15) 
0

>  <PUBCHEM_ISOTOPIC_ATOM_COUNT>  (15) 
0

>  <PUBCHEM_COMPONENT_COUNT>  (15) 
1

>  <PUBCHEM_CACTVS_TAUTO_COUNT>  (15) 
6

>  <PUBCHEM_CONFORMER_ID>  (15) 
073AF3D000000001

>  <PUBCHEM_MMFF94_ENERGY>  (15) 
79.8902

>  <PUBCHEM_FEATURE_SELFOVERLAP>  (15) 
86.519

>  <PUBCHEM_SHAPE_FINGERPRINT>  (15) 
10462385 53 18130797772172989646
11007060 377 18412270515157351184
11136131 41 18041837291239182498
12104220 1 18336543919146523426
14279260 333 18411414017021590766
14340393 34 17560815298998090150
14725015 67 18192713565244690411
14856354 85 18340771562630212415
15021287 119 16732704978280635668
15183329 4 17968365854101714058
15361156 5 18197782305437820108
16112460 7 18259698978925978506
19304152 47 18116165388998083889
19311894 1 18126840732096951383
20775438 99 16324815043663056839
3383291 50 18335982077690784482
469060 322 18190202194819114153
9896288 288 18341625785044793457

>  <PUBCHEM_SHAPE_MULTIPOLES>  (15) 
791.35
21.13
5.68
1.86
70.33
2.12
0.38
-9.39
1.8
-9.67
-1.84
-0.97
1
-1.21

>  <PUBCHEM_SHAPE_SELFOVERLAP>  (15) 
1654.563

>  <PUBCHEM_SHAPE_VOLUME>  (15) 
449.9

>  <PUBCHEM_COORDINATE_TYPE>  (15) 
2
5
10

$$$$
Ritonavir
     RDKit          3D

 50 53  0  0  1  0  0  0  0  0999 V2000
    7.9450   -1.9576   -0.1159 S   0  0  0  0  0  0  0  0  0  0  0  0
   -4.0281   -5.5308    0.3463 S   0  0  0  0  0  0  0  0  0  0  0  0
   -4.0857    1.9652   -3.2916 O   0  0  0  0  0  0  0  0  0  0  0  0
   -0.3875   -0.0983    0.3783 O   0  0  0  0  0  0  0  0  0  0  0  0
   -4.3334   -2.3854    1.0609 O   0  0  0  0  0  0  0  0  0  0  0  0
   -5.9470   -1.9643   -0.5369 O   0  0  0  0  0  0  0  0  0  0  0  0
    4.3674    1.0353    0.8520 O   0  0  0  0  0  0  0  0  0  0  0  0
   -0.2007    1.7057   -1.0969 N   0  0  0  0  0  0  0  0  0  0  0  0
   -4.0493   -0.5950   -0.5746 N   0  0  0  0  0  0  0  0  0  0  0  0
    2.3390   -0.1153    0.9306 N   0  0  0  0  0  0  0  0  0  0  0  0
    4.3165   -0.7845    2.3269 N   0  0  0  0  0  0  0  0  0  0  0  0
    8.0542   -0.8122    2.1166 N   0  0  0  0  0  0  0  0  0  0  0  0
   -6.3638   -6.3830   -0.0191 N   0  0  0  0  0  0  0  0  0  0  0  0
   -1.6508    1.8792   -1.2508 C   0  0  2  0  0  0  0  0  0  0  0  0
   -2.1448    0.8779   -2.3236 C   0  0  0  0  0  0  0  0  0  0  0  0
   -3.6651    0.8034   -2.6233 C   0  0  1  0  0  0  0  0  0  0  0  0
   -4.6221    0.4444   -1.4426 C   0  0  2  0  0  0  0  0  0  0  0  0
   -1.9675    3.3475   -1.6116 C   0  0  0  0  0  0  0  0  0  0  0  0
   -5.0894    1.6564   -0.6008 C   0  0  0  0  0  0  0  0  0  0  0  0
    1.8508    0.3737   -0.3667 C   0  0  1  0  0  0  0  0  0  0  0  0
    2.2326   -0.6280   -1.4924 C   0  0  0  0  0  0  0  0  0  0  0  0
    0.3641    0.6426   -0.3154 C   0  0  0  0  0  0  0  0  0  0  0  0
   -1.3950    4.3038   -0.5935 C   0  0  0  0  0  0  0  0  0  0  0  0
   -6.1859    1.2598    0.3563 C   0  0  0  0  0  0  0  0  0  0  0  0
    1.5327   -1.9911   -1.3492 C   0  0  0  0  0  0  0  0  0  0  0  0
    1.9771   -0.0444   -2.8915 C   0  0  0  0  0  0  0  0  0  0  0  0
   -2.0005    4.4409    0.6678 C   0  0  0  0  0  0  0  0  0  0  0  0
   -0.2232    5.0307   -0.8752 C   0  0  0  0  0  0  0  0  0  0  0  0
   -4.8245   -1.6749   -0.0400 C   0  0  0  0  0  0  0  0  0  0  0  0
   -5.8891    0.9700    1.7009 C   0  0  0  0  0  0  0  0  0  0  0  0
   -7.5022    1.0945   -0.1074 C   0  0  0  0  0  0  0  0  0  0  0  0
    3.6985    0.0887    1.3533 C   0  0  0  0  0  0  0  0  0  0  0  0
   -1.4449    5.2950    1.6283 C   0  0  0  0  0  0  0  0  0  0  0  0
    0.3217    5.8899    0.0847 C   0  0  0  0  0  0  0  0  0  0  0  0
   -6.8956    0.5354    2.5680 C   0  0  0  0  0  0  0  0  0  0  0  0
   -8.5062    0.6575    0.7637 C   0  0  0  0  0  0  0  0  0  0  0  0
   -0.2875    6.0223    1.3351 C   0  0  0  0  0  0  0  0  0  0  0  0
   -8.2041    0.3839    2.1005 C   0  0  0  0  0  0  0  0  0  0  0  0
    5.6797   -0.5022    2.8021 C   0  0  0  0  0  0  0  0  0  0  0  0
    3.6463   -2.0158    2.7588 C   0  0  0  0  0  0  0  0  0  0  0  0
   -5.1024   -3.3485    1.7792 C   0  0  0  0  0  0  0  0  0  0  0  0
    6.7328   -0.9881    1.8404 C   0  0  0  0  0  0  0  0  0  0  0  0
   -5.2756   -4.5975    0.9733 C   0  0  0  0  0  0  0  0  0  0  0  0
    8.8538   -1.3002    1.1429 C   0  0  0  0  0  0  0  0  0  0  0  0
    6.4711   -1.6223    0.6213 C   0  0  0  0  0  0  0  0  0  0  0  0
   10.3533   -1.1849    1.1782 C   0  0  0  0  0  0  0  0  0  0  0  0
   10.8276   -0.0955    0.2104 C   0  0  0  0  0  0  0  0  0  0  0  0
   11.0189   -2.5273    0.8587 C   0  0  0  0  0  0  0  0  0  0  0  0
   -6.4810   -5.2240    0.6819 C   0  0  0  0  0  0  0  0  0  0  0  0
   -5.0746   -6.6880   -0.2882 C   0  0  0  0  0  0  0  0  0  0  0  0
  1 44  1  0
  1 45  1  0
  2 43  1  0
  2 50  1  0
 16  3  1  1
  4 22  2  0
  5 29  1  0
  5 41  1  0
  6 29  2  0
  7 32  2  0
 14  8  1  0
  8 22  1  0
 17  9  1  0
  9 29  1  0
 20 10  1  1
 10 32  1  0
 11 32  1  0
 11 39  1  0
 11 40  1  0
 12 42  1  0
 12 44  2  0
 13 49  1  0
 13 50  2  0
 14 15  1  6
 14 18  1  0
 15 16  1  0
 16 17  1  0
 17 19  1  1
 18 23  1  0
 19 24  1  0
 20 21  1  0
 20 22  1  0
 21 25  1  0
 21 26  1  0
 23 27  2  0
 23 28  1  0
 24 30  2  0
 24 31  1  0
 27 33  1  0
 28 34  2  0
 30 35  1  0
 31 36  2  0
 33 37  2  0
 34 37  1  0
 35 38  2  0
 36 38  1  0
 39 42  1  0
 41 43  1  0
 42 45  2  0
 43 49  2  0
 44 46  1  0
 46 47  1  0
 46 48  1  0
M  END
>  <PUBCHEM_COMPOUND_CID>  (16) 
392622

>  <PUBCHEM_COMPOUND_CANONICALIZED>  (16) 
1

>  <PUBCHEM_CACTVS_COMPLEXITY>  (16) 
1040

>  <PUBCHEM_CACTVS_HBOND_ACCEPTOR>  (16) 
9

>  <PUBCHEM_CACTVS_HBOND_DONOR>  (16) 
4

>  <PUBCHEM_CACTVS_ROTATABLE_BOND>  (16) 
18

>  <PUBCHEM_CACTVS_SUBSKEYS>  (16) 
AAADcfB/uABgAAAAAAAAAAAAAAAAAWLAAAAwYAAAAAAAAAAB9AAAHgQQCAAADTzl3ga/iZPIFgisAzV3XACC8KBxCjhI2J24bImKdDLgsTmcYAgulgL4qAeQwPAOAAAAAAAAAAAAAAAAAAAAAAAAAAAAAA==

>  <PUBCHEM_IUPAC_OPENEYE_NAME>  (16) 
thiazol-5-ylmethyl N-[(1S,2S,4S)-1-benzyl-2-hydroxy-4-[[(2S)-2-[[(2-isopropylthiazol-4-yl)methyl-methyl-carbamoyl]amino]-3-methyl-butanoyl]amino]-5-phenyl-pentyl]carbamate

>  <PUBCHEM_IUPAC_CAS_NAME>  (16) 
N-[(2S,3S,5S)-3-hydroxy-5-[[(2S)-3-methyl-2-[[[methyl-[(2-propan-2-yl-4-thiazolyl)methyl]amino]-oxomethyl]amino]-1-oxobutyl]amino]-1,6-diphenylhexan-2-yl]carbamic acid 5-thiazolylmethyl ester

>  <PUBCHEM_IUPAC_NAME_MARKUP>  (16) 
1,3-thiazol-5-ylmethyl <I>N</I>-[(2<I>S</I>,3<I>S</I>,5<I>S</I>)-3-hydroxy-5-[[(2<I>S</I>)-3-methyl-2-[[methyl-[(2-propan-2-yl-1,3-thiazol-4-yl)methyl]carbamoyl]amino]butanoyl]amino]-1,6-diphenylhexan-2-yl]carbamate

>  <PUBCHEM_IUPAC_NAME>  (16) 
1,3-thiazol-5-ylmethyl N-[(2S,3S,5S)-3-hydroxy-5-[[(2S)-3-methyl-2-[[methyl-[(2-propan-2-yl-1,3-thiazol-4-yl)methyl]carbamoyl]amino]butanoyl]amino]-1,6-diphenylhexan-2-yl]carbamate

>  <PUBCHEM_IUPAC_SYSTEMATIC_NAME>  (16) 
1,3-thiazol-5-ylmethyl N-[(2S,3S,5S)-5-[[(2S)-3-methyl-2-[[methyl-[(2-propan-2-yl-1,3-thiazol-4-yl)methyl]carbamoyl]amino]butanoyl]amino]-3-oxidanyl-1,6-diphenyl-hexan-2-yl]carbamate

>  <PUBCHEM_IUPAC_TRADITIONAL_NAME>  (16) 
N-[(1S,2S,4S)-1-benzyl-2-hydroxy-4-[[(2S)-2-[[(2-isopropylthiazol-4-yl)methyl-methyl-carbamoyl]amino]-3-methyl-butanoyl]amino]-5-phenyl-pentyl]carbamic acid thiazol-5-ylmethyl ester

>  <PUBCHEM_IUPAC_INCHI>  (16) 
InChI=1S/C37H48N6O5S2/c1-24(2)33(42-36(46)43(5)20-29-22-49-35(40-29)25(3)4)34(45)39-28(16-26-12-8-6-9-13-26)18-32(44)31(17-27-14-10-7-11-15-27)41-37(47)48-21-30-19-38-23-50-30/h6-15,19,22-25,28,31-33,44H,16-18,20-21H2,1-5H3,(H,39,45)(H,41,47)(H,42,46)/t28-,31-,32-,33-/m0/s1

>  <PUBCHEM_IUPAC_INCHIKEY>  (16) 
NCDNCNXCDXHOMX-XGKFQTDJSA-N

>  <PUBCHEM_XLOGP3_AA>  (16) 
6

>  <PUBCHEM_EXACT_MASS>  (16) 
720.31276100

>  <PUBCHEM_MOLECULAR_FORMULA>  (16) 
C37H48N6O5S2

>  <PUBCHEM_MOLECULAR_WEIGHT>  (16) 
720.9

>  <PUBCHEM_SMILES>  (16) 
CC(C)C1=NC(=CS1)CN(C)C(=O)N[C@@H](C(C)C)C(=O)N[C@@H](CC2=CC=CC=C2)C[C@@H]([C@H](CC3=CC=CC=C3)NC(=O)OCC4=CN=CS4)O

>  <PUBCHEM_CONNECTIVITY_SMILES>  (16) 
CC(C)C1=NC(=CS1)CN(C)C(=O)NC(C(C)C)C(=O)NC(CC2=CC=CC=C2)CC(C(CC3=CC=CC=C3)NC(=O)OCC4=CN=CS4)O

>  <PUBCHEM_CACTVS_TPSA>  (16) 
202

>  <PUBCHEM_MONOISOTOPIC_WEIGHT>  (16) 
720.31276100

>  <PUBCHEM_TOTAL_CHARGE>  (16) 
0

>  <PUBCHEM_HEAVY_ATOM_COUNT>  (16) 
50

>  <PUBCHEM_ATOM_DEF_STEREO_COUNT>  (16) 
4

>  <PUBCHEM_ATOM_UDEF_STEREO_COUNT>  (16) 
0

>  <PUBCHEM_BOND_DEF_STEREO_COUNT>  (16) 
0

>  <PUBCHEM_BOND_UDEF_STEREO_COUNT>  (16) 
0

>  <PUBCHEM_ISOTOPIC_ATOM_COUNT>  (16) 
0

>  <PUBCHEM_COMPONENT_COUNT>  (16) 
1

>  <PUBCHEM_CACTVS_TAUTO_COUNT>  (16) 
-1

>  <PUBCHEM_COORDINATE_TYPE>  (16) 
1
5
255

>  <PUBCHEM_BONDANNOTATIONS>  (16) 
1  44  8
1  45  8
20  10  6
12  42  8
12  44  8
13  49  8
13  50  8
2  43  8
2  50  8
23  27  8
23  28  8
24  30  8
24  31  8
27  33  8
28  34  8
16  3  5
30  35  8
31  36  8
33  37  8
34  37  8
35  38  8
36  38  8
42  45  8
43  49  8
14  8  6
17  9  5

$$$$
Umifenovir(131411)
     RDKit          3D

 29 31  0  0  0  0  0  0  0  0999 V2000
   -4.9945    3.6614    0.6659 Br  0  0  0  0  0  0  0  0  0  0  0  0
    2.8944    0.2378    0.9878 S   0  0  0  0  0  0  0  0  0  0  0  0
   -5.2625    0.6631   -0.0404 O   0  0  0  0  0  0  0  0  0  0  0  0
    0.0337   -2.3026    0.1413 O   0  0  0  0  0  0  0  0  0  0  0  0
   -0.1109   -1.8908   -2.1094 O   0  0  0  0  0  0  0  0  0  0  0  0
    0.0490    2.0344   -0.1088 N   0  0  0  0  0  0  0  0  0  0  0  0
   -4.3431   -1.7837    0.2844 N   0  0  0  0  0  0  0  0  0  0  0  0
   -1.6097    0.5606   -0.3408 C   0  0  0  0  0  0  0  0  0  0  0  0
   -1.3187    1.8930   -0.0402 C   0  0  0  0  0  0  0  0  0  0  0  0
    0.6310    0.8405   -0.4412 C   0  0  0  0  0  0  0  0  0  0  0  0
   -0.3700   -0.0913   -0.5916 C   0  0  0  0  0  0  0  0  0  0  0  0
   -2.9557    0.1438   -0.3407 C   0  0  0  0  0  0  0  0  0  0  0  0
   -3.3475   -1.2684   -0.6530 C   0  0  0  0  0  0  0  0  0  0  0  0
   -2.3104    2.8330    0.2617 C   0  0  0  0  0  0  0  0  0  0  0  0
   -3.9582    1.0731   -0.0405 C   0  0  0  0  0  0  0  0  0  0  0  0
    2.0964    0.7004   -0.5862 C   0  0  0  0  0  0  0  0  0  0  0  0
    0.7665    3.2686    0.1370 C   0  0  0  0  0  0  0  0  0  0  0  0
   -3.6383    2.3966    0.2558 C   0  0  0  0  0  0  0  0  0  0  0  0
   -0.1453   -1.4664   -0.9420 C   0  0  0  0  0  0  0  0  0  0  0  0
   -4.7430   -3.1408   -0.0876 C   0  0  0  0  0  0  0  0  0  0  0  0
   -3.8199   -1.7623    1.6502 C   0  0  0  0  0  0  0  0  0  0  0  0
    4.6190    0.2464    0.5170 C   0  0  0  0  0  0  0  0  0  0  0  0
    0.2623   -3.6887   -0.1368 C   0  0  0  0  0  0  0  0  0  0  0  0
    4.9779    0.5632   -0.7904 C   0  0  0  0  0  0  0  0  0  0  0  0
    5.5954   -0.0632    1.4598 C   0  0  0  0  0  0  0  0  0  0  0  0
    0.4328   -4.4324    1.1707 C   0  0  0  0  0  0  0  0  0  0  0  0
    6.3234    0.5701   -1.1579 C   0  0  0  0  0  0  0  0  0  0  0  0
    6.9411   -0.0562    1.0923 C   0  0  0  0  0  0  0  0  0  0  0  0
    7.3050    0.2605   -0.2166 C   0  0  0  0  0  0  0  0  0  0  0  0
  1 18  1  0
  2 16  1  0
  2 22  1  0
  3 15  1  0
  4 19  1  0
  4 23  1  0
  5 19  2  0
  6  9  1  0
  6 10  1  0
  6 17  1  0
  7 13  1  0
  7 20  1  0
  7 21  1  0
  8  9  2  0
  8 11  1  0
  8 12  1  0
  9 14  1  0
 10 11  2  0
 10 16  1  0
 11 19  1  0
 12 13  1  0
 12 15  2  0
 14 18  2  0
 15 18  1  0
 22 24  2  0
 22 25  1  0
 23 26  1  0
 24 27  1  0
 25 28  2  0
 27 29  2  0
 28 29  1  0
M  END
>  <PUBCHEM_COMPOUND_CID>  (17) 
131411

>  <PUBCHEM_CONFORMER_RMSD>  (17) 
1

>  <PUBCHEM_CONFORMER_DIVERSEORDER>  (17) 
1
19
18
2
21
20
10
16
9
12
6
14
7
15
13
4
8
3
11
17
5

>  <PUBCHEM_MMFF94_PARTIAL_CHARGES>  (17) 
34
1 -0.11
10 -0.33
11 -0.09
12 -0.14
13 0.41
14 -0.15
15 0.08
16 0.41
17 0.26
18 0.11
19 0.81
2 -0.33
20 0.27
21 0.27
22 0.1
23 0.28
24 -0.15
25 -0.15
27 -0.15
28 -0.15
29 -0.15
3 -0.53
32 0.15
4 -0.43
44 0.45
47 0.15
48 0.15
5 -0.57
52 0.15
53 0.15
54 0.15
6 0.05
7 -0.81
9 -0.15

>  <PUBCHEM_EFFECTIVE_ROTOR_COUNT>  (17) 
8

>  <PUBCHEM_PHARMACOPHORE_FEATURES>  (17) 
8
1 1 hydrophobe
1 3 donor
1 5 acceptor
1 6 cation
1 7 cation
5 6 8 9 10 11 rings
6 22 24 25 27 28 29 rings
6 8 9 12 14 15 18 rings

>  <PUBCHEM_HEAVY_ATOM_COUNT>  (17) 
29

>  <PUBCHEM_ATOM_DEF_STEREO_COUNT>  (17) 
0

>  <PUBCHEM_ATOM_UDEF_STEREO_COUNT>  (17) 
0

>  <PUBCHEM_BOND_DEF_STEREO_COUNT>  (17) 
0

>  <PUBCHEM_BOND_UDEF_STEREO_COUNT>  (17) 
0

>  <PUBCHEM_ISOTOPIC_ATOM_COUNT>  (17) 
0

>  <PUBCHEM_COMPONENT_COUNT>  (17) 
1

>  <PUBCHEM_CACTVS_TAUTO_COUNT>  (17) 
3

>  <PUBCHEM_CONFORMER_ID>  (17) 
0002015300000001

>  <PUBCHEM_MMFF94_ENERGY>  (17) 
80.884

>  <PUBCHEM_FEATURE_SELFOVERLAP>  (17) 
40.686

>  <PUBCHEM_SHAPE_FINGERPRINT>  (17) 
10411042 1 18124595538538461863
10906281 52 18268434534205002261
1100329 8 18192709179281578371
11007060 377 18340208608861520792
11756154 5 18044371862550207386
12236239 1 18040716970399352356
12788726 201 18193568976041710998
13140716 1 18341333400830668761
14117953 113 18200027482433898175
14178342 30 18411424986320338389
14341114 328 18040994004005079416
14466204 15 18412263917491615185
14725015 67 18267583684119560939
14790565 3 18409735066786858228
14856354 85 18409735070949430725
14866123 147 18337949125082979738
15361156 5 18056196006895805342
1577012 14 18041000627499037132
15927050 60 18267868281563830303
17980427 23 17530978980908428564
18927931 339 18343020016880066997
19319366 153 17676196962932562562
20028762 73 18056760055781723223
20642791 178 18334588952854818924
21033648 29 17560221579566449504
21236236 1 18410857663567924857
21796203 349 17829646020690089489
22182313 1 17916885537760521525
22311459 1 18338797806462878061
23522609 53 17896624850503809644
23559900 14 18265325278388244081
335352 9 18410852175454594637
3383291 50 18336823221113135914
3411729 13 18125159333777208660
392239 28 18411707607462376355
5265222 85 18200877404942598492
5385378 56 18124600777528410793
9896288 288 18341898480839767211
9981440 41 18335708204410230699

>  <PUBCHEM_SHAPE_MULTIPOLES>  (17) 
579.03
14.7
4.55
1.22
23.28
2.84
-0.04
-4.17
-2.42
-6.56
-1.02
0.76
0.52
-0.68

>  <PUBCHEM_SHAPE_SELFOVERLAP>  (17) 
1209.589

>  <PUBCHEM_SHAPE_VOLUME>  (17) 
339.4

>  <PUBCHEM_COORDINATE_TYPE>  (17) 
2
5
10

$$$$
